@<TRIPOS>MOLECULE
*****
 34 37 0 0 0
SMALL
GASTEIGER

@<TRIPOS>ATOM
      1 N         142.6885  140.5416  167.9506 N.3     1  UNL1       -0.2653
      2 C         142.9956  142.0060  167.8449 C.3     1  UNL1        0.1036
      3 C         143.5305  142.5694  166.5617 C.3     1  UNL1        0.1470
      4 C         144.0654  143.1329  165.2786 C.3     1  UNL1        0.1035
      5 N         144.2931  142.2319  164.1011 N.3     1  UNL1       -0.2673
      6 C         143.9860  140.7674  164.2069 C.3     1  UNL1        0.1035
      7 C         143.4511  140.2040  165.4900 C.3     1  UNL1        0.1470
      8 C         142.9163  139.6406  166.7731 C.3     1  UNL1        0.1036
      9 O         143.7582  141.6684  165.3843 O.3     1  UNL1       -0.3530
     10 C         142.1536  139.9782  169.2337 C.3     1  UNL1        0.1202
     11 C         140.6770  139.9837  169.4974 C.3     1  UNL1        0.2226
     12 O         139.7730  140.8613  168.6832 O.3     1  UNL1       -0.4740
     13 C         138.5988  139.6322  164.5166 C.ar    1  UNL1        0.0686
     14 C         138.2684  138.7463  165.6812 C.ar    1  UNL1        0.0134
     15 C         138.6598  139.1560  167.0700 C.ar    1  UNL1        0.0376
     16 C         139.3816  140.4516  167.2944 C.ar    1  UNL1        0.1387
     17 C         139.7121  141.3374  166.1300 C.ar    1  UNL1        0.0376
     18 C         139.3207  140.9278  164.7410 C.ar    1  UNL1        0.0134
     19 N         137.8160  138.8128  161.7390 N.1     1  UNL1       -0.1908
     20 C         138.2074  139.2225  163.1278 C.1     1  UNL1        0.1004
     21 C         144.8280  142.7952  162.8180 C.3     1  UNL1        0.0913
     22 C         143.8968  143.0743  161.6756 C.3     1  UNL1        0.1087
     23 N         143.0405  144.3058  161.6896 N.3     1  UNL1       -0.1780
     24 H         142.9167  144.5894  160.7177 H       1  UNL1        0.1488
     25 S         141.6734  144.2617  162.3054 S.O2    1  UNL1        0.0603
     26 O         141.2451  143.2522  161.2820 O.2     1  UNL1       -0.1530
     27 O         142.1018  145.2712  163.3288 O.2     1  UNL1       -0.1530
     28 C         140.3063  144.2176  162.9212 C.ar    1  UNL1        0.1242
     29 C         139.1656  143.5963  162.1710 C.ar    1  UNL1        0.0200
     30 C         137.7985  143.5522  162.7868 C.ar    1  UNL1        0.0037
     31 C         137.5722  144.1293  164.1526 C.ar    1  UNL1        0.0297
     32 C         138.7130  144.7506  164.9027 C.ar    1  UNL1        0.1415
     33 F         138.4866  145.3278  166.2687 F       1  UNL1       -0.2041
     34 C         140.0800  144.7947  164.2870 C.ar    1  UNL1        0.0495
@<TRIPOS>BOND
     1    19    20    3
     2    20    13    1
     3    13    14   ar
     4    14    15   ar
     5    15    16   ar
     6    16    12    1
     7    12    11    1
     8    11    10    1
     9    10     1    1
    10     1     2    1
    11     2     3    1
    12     3     4    1
    13     4     5    1
    14     5    21    1
    15    21    22    1
    16    22    23    1
    17    23    25    1
    18    25    26    2
    19    25    27    2
    20    25    28    1
    21    28    29   ar
    22    29    30   ar
    23    30    31   ar
    24    31    32   ar
    25    32    33    1
    26    32    34   ar
    27     5     6    1
    28     6     7    1
    29     7     8    1
    30     7     9    1
    31    16    17   ar
    32    17    18   ar
    33    18    13   ar
    34     8     1    1
    35     9     3    1
    36    34    28   ar
    37    23    24    1
@<TRIPOS>MOLECULE
*****
 34 37 0 0 0
SMALL
GASTEIGER

@<TRIPOS>ATOM
      1 N         144.4405  139.9059  163.5810 N.3     1  UNL1       -0.2653
      2 C         145.1137  141.2362  163.4164 C.3     1  UNL1        0.1036
      3 C         144.7655  142.1139  162.2509 C.3     1  UNL1        0.1470
      4 C         144.4172  142.9916  161.0854 C.3     1  UNL1        0.1035
      5 N         143.3958  142.5389  160.0845 N.3     1  UNL1       -0.2673
      6 C         142.7227  141.2086  160.2491 C.3     1  UNL1        0.1035
      7 C         143.0709  140.3309  161.4146 C.3     1  UNL1        0.1470
      8 C         143.4191  139.4533  162.5801 C.3     1  UNL1        0.1036
      9 O         143.7441  141.6612  161.2500 O.3     1  UNL1       -0.3530
     10 C         144.7888  139.0282  164.7466 C.3     1  UNL1        0.1202
     11 C         143.7727  138.7668  165.8185 C.3     1  UNL1        0.2226
     12 O         142.3842  139.3192  165.6867 O.3     1  UNL1       -0.4740
     13 C         140.9715  142.5469  168.4859 C.ar    1  UNL1        0.0686
     14 C         140.4559  142.4964  167.0781 C.ar    1  UNL1        0.0134
     15 C         140.9268  141.4205  166.1451 C.ar    1  UNL1        0.0376
     16 C         141.9133  140.3951  166.6197 C.ar    1  UNL1        0.1387
     17 C         142.4289  140.4455  168.0274 C.ar    1  UNL1        0.0376
     18 C         141.9580  141.5215  168.9605 C.ar    1  UNL1        0.0134
     19 N         140.0297  144.6987  170.3520 N.1     1  UNL1       -0.1908
     20 C         140.5006  143.6228  169.4189 C.1     1  UNL1        0.1004
     21 C         143.0476  143.4166  158.9190 C.3     1  UNL1        0.0913
     22 C         141.9112  144.3898  159.0261 C.3     1  UNL1        0.1087
     23 N         141.7338  145.2012  160.2752 N.3     1  UNL1       -0.1780
     24 H         141.4786  146.1437  159.9803 H       1  UNL1        0.1488
     25 S         140.7270  144.7821  161.3050 S.O2    1  UNL1        0.0603
     26 O         141.7918  144.8184  162.3608 O.2     1  UNL1       -0.1530
     27 O         139.6622  144.7458  160.2492 O.2     1  UNL1       -0.1530
     28 C         139.7200  144.3630  162.3348 C.ar    1  UNL1        0.1242
     29 C         138.7840  143.2262  162.0494 C.ar    1  UNL1        0.0200
     30 C         137.7771  142.8071  163.0792 C.ar    1  UNL1        0.0037
     31 C         137.7062  143.5248  164.3943 C.ar    1  UNL1        0.0297
     32 C         138.6422  144.6617  164.6798 C.ar    1  UNL1        0.1415
     33 F         138.5712  145.3794  165.9950 F       1  UNL1       -0.2041
     34 C         139.6491  145.0808  163.6500 C.ar    1  UNL1        0.0495
@<TRIPOS>BOND
     1    19    20    3
     2    20    13    1
     3    13    14   ar
     4    14    15   ar
     5    15    16   ar
     6    16    12    1
     7    12    11    1
     8    11    10    1
     9    10     1    1
    10     1     2    1
    11     2     3    1
    12     3     4    1
    13     4     5    1
    14     5    21    1
    15    21    22    1
    16    22    23    1
    17    23    25    1
    18    25    26    2
    19    25    27    2
    20    25    28    1
    21    28    29   ar
    22    29    30   ar
    23    30    31   ar
    24    31    32   ar
    25    32    33    1
    26    32    34   ar
    27     5     6    1
    28     6     7    1
    29     7     8    1
    30     7     9    1
    31    16    17   ar
    32    17    18   ar
    33    18    13   ar
    34     8     1    1
    35     9     3    1
    36    34    28   ar
    37    23    24    1
@<TRIPOS>MOLECULE
*****
 34 37 0 0 0
SMALL
GASTEIGER

@<TRIPOS>ATOM
      1 N         140.4146  138.7410  162.6621 N.3     1  UNL1       -0.2653
      2 C         139.6529  139.1380  161.4324 C.3     1  UNL1        0.1036
      3 C         140.1627  140.2462  160.5595 C.3     1  UNL1        0.1470
      4 C         140.6726  141.3544  159.6866 C.3     1  UNL1        0.1035
      5 N         141.9442  142.0656  160.0434 N.3     1  UNL1       -0.2673
      6 C         142.7059  141.6685  161.2732 C.3     1  UNL1        0.1035
      7 C         142.1960  140.5603  162.1460 C.3     1  UNL1        0.1470
      8 C         141.6862  139.4521  163.0189 C.3     1  UNL1        0.1036
      9 O         141.4343  140.9573  160.9164 O.3     1  UNL1       -0.3530
     10 C         139.9047  137.6327  163.5350 C.3     1  UNL1        0.1202
     11 C         139.1014  137.9526  164.7606 C.3     1  UNL1        0.2226
     12 O         138.6263  139.3549  165.0012 O.3     1  UNL1       -0.4740
     13 C         140.5353  141.8567  168.2177 C.ar    1  UNL1        0.0686
     14 C         139.7697  140.6200  168.5847 C.ar    1  UNL1        0.0134
     15 C         139.1334  139.7861  167.5125 C.ar    1  UNL1        0.0376
     16 C         139.2626  140.1888  166.0733 C.ar    1  UNL1        0.1387
     17 C         140.0281  141.4255  165.7064 C.ar    1  UNL1        0.0376
     18 C         140.6644  142.2595  166.7786 C.ar    1  UNL1        0.0134
     19 N         141.8079  143.5246  170.3621 N.1     1  UNL1       -0.1908
     20 C         141.1716  142.6907  169.2899 C.1     1  UNL1        0.1004
     21 C         142.4540  143.1738  159.1706 C.3     1  UNL1        0.0913
     22 C         141.7829  144.5151  159.1927 C.3     1  UNL1        0.1087
     23 N         141.6545  145.2684  160.4834 N.3     1  UNL1       -0.1780
     24 H         141.4463  146.2367  160.2398 H       1  UNL1        0.1488
     25 S         140.6334  144.8481  161.4986 S.O2    1  UNL1        0.0603
     26 O         139.5840  144.8105  160.4275 O.2     1  UNL1       -0.1530
     27 O         141.6828  144.8857  162.5697 O.2     1  UNL1       -0.1530
     28 C         139.6123  144.4278  162.5139 C.ar    1  UNL1        0.1242
     29 C         138.6417  143.3305  162.1915 C.ar    1  UNL1        0.0200
     30 C         137.6206  142.9102  163.2067 C.ar    1  UNL1        0.0037
     31 C         137.5701  143.5872  164.5443 C.ar    1  UNL1        0.0297
     32 C         138.5406  144.6845  164.8666 C.ar    1  UNL1        0.1415
     33 F         138.4901  145.3616  166.2043 F       1  UNL1       -0.2041
     34 C         139.5617  145.1048  163.8514 C.ar    1  UNL1        0.0495
@<TRIPOS>BOND
     1    19    20    3
     2    20    13    1
     3    13    14   ar
     4    14    15   ar
     5    15    16   ar
     6    16    12    1
     7    12    11    1
     8    11    10    1
     9    10     1    1
    10     1     2    1
    11     2     3    1
    12     3     4    1
    13     4     5    1
    14     5    21    1
    15    21    22    1
    16    22    23    1
    17    23    25    1
    18    25    26    2
    19    25    27    2
    20    25    28    1
    21    28    29   ar
    22    29    30   ar
    23    30    31   ar
    24    31    32   ar
    25    32    33    1
    26    32    34   ar
    27     5     6    1
    28     6     7    1
    29     7     8    1
    30     7     9    1
    31    16    17   ar
    32    17    18   ar
    33    18    13   ar
    34     8     1    1
    35     9     3    1
    36    34    28   ar
    37    23    24    1
@<TRIPOS>MOLECULE
*****
 34 37 0 0 0
SMALL
GASTEIGER

@<TRIPOS>ATOM
      1 N         139.0533  139.0483  162.8548 N.3     1  UNL1       -0.2653
      2 C         138.1584  140.2348  163.0584 C.3     1  UNL1        0.1036
      3 C         138.3476  141.4684  162.2263 C.3     1  UNL1        0.1470
      4 C         138.5368  142.7021  161.3943 C.3     1  UNL1        0.1035
      5 N         139.6210  142.7493  160.3587 N.3     1  UNL1       -0.2673
      6 C         140.5159  141.5628  160.1551 C.3     1  UNL1        0.1035
      7 C         140.3267  140.3291  160.9872 C.3     1  UNL1        0.1470
      8 C         140.1374  139.0955  161.8192 C.3     1  UNL1        0.1036
      9 O         139.4318  141.5156  161.1907 O.3     1  UNL1       -0.3530
     10 C         138.8641  137.8146  163.6868 C.3     1  UNL1        0.1202
     11 C         139.7180  137.5895  164.8993 C.3     1  UNL1        0.2226
     12 O         140.8067  138.5631  165.2412 O.3     1  UNL1       -0.4740
     13 C         140.8034  140.6296  169.2387 C.ar    1  UNL1        0.0686
     14 C         139.5153  140.4303  168.4963 C.ar    1  UNL1        0.0134
     15 C         139.5164  139.7415  167.1639 C.ar    1  UNL1        0.0376
     16 C         140.8056  139.2519  166.5737 C.ar    1  UNL1        0.1387
     17 C         142.0937  139.4513  167.3160 C.ar    1  UNL1        0.0376
     18 C         142.0926  140.1401  168.6485 C.ar    1  UNL1        0.0134
     19 N         140.8011  142.0073  171.9036 N.1     1  UNL1       -0.1908
     20 C         140.8023  141.3185  170.5711 C.1     1  UNL1        0.1004
     21 C         139.8102  143.9829  159.5267 C.3     1  UNL1        0.0913
     22 C         141.1405  144.6756  159.5041 C.3     1  UNL1        0.1087
     23 N         141.5920  145.4714  160.6927 N.3     1  UNL1       -0.1780
     24 H         140.8402  146.1248  160.9123 H       1  UNL1        0.1488
     25 S         141.9464  144.7732  161.9720 S.O2    1  UNL1        0.0603
     26 O         143.1285  144.1407  161.2993 O.2     1  UNL1       -0.1530
     27 O         140.7643  145.4057  162.6447 O.2     1  UNL1       -0.1530
     28 C         142.3008  144.0749  163.2515 C.ar    1  UNL1        0.1242
     29 C         141.3337  143.1111  163.8726 C.ar    1  UNL1        0.0200
     30 C         141.6880  142.4128  165.1520 C.ar    1  UNL1        0.0037
     31 C         143.0094  142.6783  165.8102 C.ar    1  UNL1        0.0297
     32 C         143.9765  143.6421  165.1890 C.ar    1  UNL1        0.1415
     33 F         145.2980  143.9076  165.8473 F       1  UNL1       -0.2041
     34 C         143.6222  144.3404  163.9097 C.ar    1  UNL1        0.0495
@<TRIPOS>BOND
     1    19    20    3
     2    20    13    1
     3    13    14   ar
     4    14    15   ar
     5    15    16   ar
     6    16    12    1
     7    12    11    1
     8    11    10    1
     9    10     1    1
    10     1     2    1
    11     2     3    1
    12     3     4    1
    13     4     5    1
    14     5    21    1
    15    21    22    1
    16    22    23    1
    17    23    25    1
    18    25    26    2
    19    25    27    2
    20    25    28    1
    21    28    29   ar
    22    29    30   ar
    23    30    31   ar
    24    31    32   ar
    25    32    33    1
    26    32    34   ar
    27     5     6    1
    28     6     7    1
    29     7     8    1
    30     7     9    1
    31    16    17   ar
    32    17    18   ar
    33    18    13   ar
    34     8     1    1
    35     9     3    1
    36    34    28   ar
    37    23    24    1
@<TRIPOS>MOLECULE
*****
 34 37 0 0 0
SMALL
GASTEIGER

@<TRIPOS>ATOM
      1 N         141.3743  144.9236  161.6078 N.3     1  UNL1       -0.2653
      2 C         141.9839  145.1593  162.9579 C.3     1  UNL1        0.1036
      3 C         143.0503  144.2373  163.4705 C.3     1  UNL1        0.1470
      4 C         144.1167  143.3154  163.9832 C.3     1  UNL1        0.1035
      5 N         144.5735  142.1578  163.1457 N.3     1  UNL1       -0.2673
      6 C         143.9639  141.9222  161.7955 C.3     1  UNL1        0.1035
      7 C         142.8976  142.8442  161.2829 C.3     1  UNL1        0.1470
      8 C         141.8312  143.7661  160.7702 C.3     1  UNL1        0.1036
      9 O         143.5071  143.0798  162.6330 O.3     1  UNL1       -0.3530
     10 C         140.3079  145.8456  161.0951 C.3     1  UNL1        0.1202
     11 C         139.1134  146.1579  161.9469 C.3     1  UNL1        0.2226
     12 O         138.1397  145.0728  162.3000 O.3     1  UNL1       -0.4740
     13 C         139.2349  141.9827  165.3825 C.ar    1  UNL1        0.0686
     14 C         139.4311  143.4400  165.6788 C.ar    1  UNL1        0.0134
     15 C         139.0660  144.4701  164.6513 C.ar    1  UNL1        0.0376
     16 C         138.5048  144.0428  163.3275 C.ar    1  UNL1        0.1387
     17 C         138.3086  142.5855  163.0312 C.ar    1  UNL1        0.0376
     18 C         138.6736  141.5554  164.0587 C.ar    1  UNL1        0.0134
     19 N         139.9650  139.9227  167.4375 N.1     1  UNL1       -0.1908
     20 C         139.5999  140.9527  166.4100 C.1     1  UNL1        0.1004
     21 C         145.6399  141.2359  163.6583 C.3     1  UNL1        0.0913
     22 C         145.2674  139.8919  164.2107 C.3     1  UNL1        0.1087
     23 N         144.7332  138.8279  163.2984 N.3     1  UNL1       -0.1780
     24 H         145.1745  137.9517  163.5777 H       1  UNL1        0.1488
     25 S         143.2574  138.5678  163.2329 S.O2    1  UNL1        0.0603
     26 O         143.1632  138.7272  164.7214 O.2     1  UNL1       -0.1530
     27 O         143.3515  138.4085  161.7444 O.2     1  UNL1       -0.1530
     28 C         141.7815  138.3077  163.1673 C.ar    1  UNL1        0.1242
     29 C         141.0758  138.3206  161.8438 C.ar    1  UNL1        0.0200
     30 C         139.6000  138.0605  161.7782 C.ar    1  UNL1        0.0037
     31 C         138.8299  137.7876  163.0361 C.ar    1  UNL1        0.0297
     32 C         139.5357  137.7747  164.3597 C.ar    1  UNL1        0.1415
     33 F         138.7655  137.5018  165.6176 F       1  UNL1       -0.2041
     34 C         141.0115  138.0348  164.4253 C.ar    1  UNL1        0.0495
@<TRIPOS>BOND
     1    19    20    3
     2    20    13    1
     3    13    14   ar
     4    14    15   ar
     5    15    16   ar
     6    16    12    1
     7    12    11    1
     8    11    10    1
     9    10     1    1
    10     1     2    1
    11     2     3    1
    12     3     4    1
    13     4     5    1
    14     5    21    1
    15    21    22    1
    16    22    23    1
    17    23    25    1
    18    25    26    2
    19    25    27    2
    20    25    28    1
    21    28    29   ar
    22    29    30   ar
    23    30    31   ar
    24    31    32   ar
    25    32    33    1
    26    32    34   ar
    27     5     6    1
    28     6     7    1
    29     7     8    1
    30     7     9    1
    31    16    17   ar
    32    17    18   ar
    33    18    13   ar
    34     8     1    1
    35     9     3    1
    36    34    28   ar
    37    23    24    1
@<TRIPOS>MOLECULE
*****
 34 37 0 0 0
SMALL
GASTEIGER

@<TRIPOS>ATOM
      1 N         139.1421  139.1625  161.4463 N.3     1  UNL1       -0.2653
      2 C         140.5381  139.4392  160.9721 C.3     1  UNL1        0.1036
      3 C         140.8300  140.6815  160.1840 C.3     1  UNL1        0.1470
      4 C         141.1220  141.9240  159.3957 C.3     1  UNL1        0.1035
      5 N         140.0180  142.8897  159.0817 N.3     1  UNL1       -0.2673
      6 C         138.6220  142.6130  159.5559 C.3     1  UNL1        0.1035
      7 C         138.3301  141.3706  160.3441 C.3     1  UNL1        0.1470
      8 C         138.0382  140.1282  161.1323 C.3     1  UNL1        0.1036
      9 O         139.7260  141.6472  159.8699 O.3     1  UNL1       -0.3530
     10 C         138.8502  137.9201  162.2345 C.3     1  UNL1        0.1202
     11 C         138.8965  137.9546  163.7334 C.3     1  UNL1        0.2226
     12 O         138.9213  139.2706  164.4529 O.3     1  UNL1       -0.4740
     13 C         141.5909  139.8280  168.0323 C.ar    1  UNL1        0.0686
     14 C         140.1190  140.0940  168.1458 C.ar    1  UNL1        0.0134
     15 C         139.2292  139.9082  166.9526 C.ar    1  UNL1        0.0376
     16 C         139.8111  139.4564  165.6460 C.ar    1  UNL1        0.1387
     17 C         141.2830  139.1904  165.5326 C.ar    1  UNL1        0.0376
     18 C         142.1729  139.3762  166.7258 C.ar    1  UNL1        0.0134
     19 N         143.3706  140.1996  170.4186 N.1     1  UNL1       -0.1908
     20 C         142.4808  140.0138  169.2255 C.1     1  UNL1        0.1004
     21 C         140.3099  144.1320  158.2935 C.3     1  UNL1        0.0913
     22 C         140.4864  145.4439  158.9993 C.3     1  UNL1        0.1087
     23 N         141.3965  145.5396  160.1878 N.3     1  UNL1       -0.1780
     24 H         141.6532  146.5221  160.2837 H       1  UNL1        0.1488
     25 S         140.9211  145.0827  161.5351 S.O2    1  UNL1        0.0603
     26 O         139.6159  145.7880  161.3137 O.2     1  UNL1       -0.1530
     27 O         142.2263  144.3775  161.7564 O.2     1  UNL1       -0.1530
     28 C         140.4457  144.6258  162.8824 C.ar    1  UNL1        0.1242
     29 C         139.0546  144.9536  163.3377 C.ar    1  UNL1        0.0200
     30 C         138.5792  144.4967  164.6850 C.ar    1  UNL1        0.0037
     31 C         139.4949  143.7121  165.5770 C.ar    1  UNL1        0.0297
     32 C         140.8861  143.3844  165.1217 C.ar    1  UNL1        0.1415
     33 F         141.8019  142.5997  166.0138 F       1  UNL1       -0.2041
     34 C         141.3615  143.8412  163.7744 C.ar    1  UNL1        0.0495
@<TRIPOS>BOND
     1    19    20    3
     2    20    13    1
     3    13    14   ar
     4    14    15   ar
     5    15    16   ar
     6    16    12    1
     7    12    11    1
     8    11    10    1
     9    10     1    1
    10     1     2    1
    11     2     3    1
    12     3     4    1
    13     4     5    1
    14     5    21    1
    15    21    22    1
    16    22    23    1
    17    23    25    1
    18    25    26    2
    19    25    27    2
    20    25    28    1
    21    28    29   ar
    22    29    30   ar
    23    30    31   ar
    24    31    32   ar
    25    32    33    1
    26    32    34   ar
    27     5     6    1
    28     6     7    1
    29     7     8    1
    30     7     9    1
    31    16    17   ar
    32    17    18   ar
    33    18    13   ar
    34     8     1    1
    35     9     3    1
    36    34    28   ar
    37    23    24    1
@<TRIPOS>MOLECULE
*****
 34 37 0 0 0
SMALL
GASTEIGER

@<TRIPOS>ATOM
      1 N         142.9612  143.5655  163.1237 N.3     1  UNL1       -0.2653
      2 C         141.5298  143.9681  163.3211 C.3     1  UNL1        0.1036
      3 C         140.4881  143.5454  162.3282 C.3     1  UNL1        0.1470
      4 C         139.4462  143.1226  161.3353 C.3     1  UNL1        0.1035
      5 N         139.8357  142.2972  160.1450 N.3     1  UNL1       -0.2673
      6 C         141.2672  141.8945  159.9476 C.3     1  UNL1        0.1035
      7 C         142.3090  142.3173  160.9405 C.3     1  UNL1        0.1470
      8 C         143.3508  142.7400  161.9334 C.3     1  UNL1        0.1036
      9 O         140.8776  142.7199  161.1379 O.3     1  UNL1       -0.3530
     10 C         144.0031  143.9882  164.1166 C.3     1  UNL1        0.1202
     11 C         144.1290  143.2658  165.4251 C.3     1  UNL1        0.2226
     12 O         143.6758  141.8406  165.5417 O.3     1  UNL1       -0.4740
     13 C         140.4212  140.7453  168.4499 C.ar    1  UNL1        0.0686
     14 C         141.5971  139.8331  168.2618 C.ar    1  UNL1        0.0134
     15 C         142.6819  140.1983  167.2924 C.ar    1  UNL1        0.0376
     16 C         142.5910  141.4755  166.5111 C.ar    1  UNL1        0.1387
     17 C         141.4151  142.3876  166.6993 C.ar    1  UNL1        0.0376
     18 C         140.3302  142.0225  167.6687 C.ar    1  UNL1        0.0134
     19 N         138.2515  140.0150  170.3887 N.1     1  UNL1       -0.1908
     20 C         139.3364  140.3802  169.4193 C.1     1  UNL1        0.1004
     21 C         138.7939  141.8744  159.1521 C.3     1  UNL1        0.0913
     22 C         138.4399  140.4239  159.0081 C.3     1  UNL1        0.1087
     23 N         137.4919  139.7833  159.9781 N.3     1  UNL1       -0.1780
     24 H         137.2380  138.8764  159.5864 H       1  UNL1        0.1488
     25 S         137.9201  139.5386  161.3946 S.O2    1  UNL1        0.0603
     26 O         138.7412  138.3670  160.9441 O.2     1  UNL1       -0.1530
     27 O         137.0990  140.7102  161.8452 O.2     1  UNL1       -0.1530
     28 C         138.3483  139.2939  162.8113 C.ar    1  UNL1        0.1242
     29 C         137.9219  140.2369  163.8972 C.ar    1  UNL1        0.0200
     30 C         138.3500  139.9923  165.3138 C.ar    1  UNL1        0.0037
     31 C         139.2045  138.8047  165.6445 C.ar    1  UNL1        0.0297
     32 C         139.6308  137.8617  164.5587 C.ar    1  UNL1        0.1415
     33 F         140.4854  136.6740  164.8895 F       1  UNL1       -0.2041
     34 C         139.2027  138.1063  163.1421 C.ar    1  UNL1        0.0495
@<TRIPOS>BOND
     1    19    20    3
     2    20    13    1
     3    13    14   ar
     4    14    15   ar
     5    15    16   ar
     6    16    12    1
     7    12    11    1
     8    11    10    1
     9    10     1    1
    10     1     2    1
    11     2     3    1
    12     3     4    1
    13     4     5    1
    14     5    21    1
    15    21    22    1
    16    22    23    1
    17    23    25    1
    18    25    26    2
    19    25    27    2
    20    25    28    1
    21    28    29   ar
    22    29    30   ar
    23    30    31   ar
    24    31    32   ar
    25    32    33    1
    26    32    34   ar
    27     5     6    1
    28     6     7    1
    29     7     8    1
    30     7     9    1
    31    16    17   ar
    32    17    18   ar
    33    18    13   ar
    34     8     1    1
    35     9     3    1
    36    34    28   ar
    37    23    24    1
@<TRIPOS>MOLECULE
*****
 34 37 0 0 0
SMALL
GASTEIGER

@<TRIPOS>ATOM
      1 N         141.0293  138.7386  162.2173 N.3     1  UNL1       -0.2653
      2 C         142.3559  139.3106  161.8137 C.3     1  UNL1        0.1036
      3 C         142.4136  140.4963  160.8967 C.3     1  UNL1        0.1470
      4 C         142.4713  141.6819  159.9797 C.3     1  UNL1        0.1035
      5 N         141.2025  142.2955  159.4663 N.3     1  UNL1       -0.2673
      6 C         139.8759  141.7234  159.8700 C.3     1  UNL1        0.1035
      7 C         139.8182  140.5378  160.7870 C.3     1  UNL1        0.1470
      8 C         139.7605  139.3522  161.7040 C.3     1  UNL1        0.1036
      9 O         141.1447  141.1098  160.3834 O.3     1  UNL1       -0.3530
     10 C         140.9715  137.5529  163.1344 C.3     1  UNL1        0.1202
     11 C         140.9307  137.7551  164.6201 C.3     1  UNL1        0.2226
     12 O         141.9081  138.6838  165.2778 O.3     1  UNL1       -0.4740
     13 C         140.6173  141.1952  168.7815 C.ar    1  UNL1        0.0686
     14 C         142.0689  141.1119  168.4127 C.ar    1  UNL1        0.0134
     15 C         142.4991  140.2748  167.2448 C.ar    1  UNL1        0.0376
     16 C         141.4778  139.5209  166.4457 C.ar    1  UNL1        0.1387
     17 C         140.0263  139.6042  166.8144 C.ar    1  UNL1        0.0376
     18 C         139.5960  140.4414  167.9824 C.ar    1  UNL1        0.0134
     19 N         139.7568  142.8695  171.1174 N.1     1  UNL1       -0.1908
     20 C         140.1870  142.0324  169.9495 C.1     1  UNL1        0.1004
     21 C         141.2602  143.4812  158.5494 C.3     1  UNL1        0.0913
     22 C         140.8123  144.8278  159.0354 C.3     1  UNL1        0.1087
     23 N         141.4452  145.4345  160.2525 N.3     1  UNL1       -0.1780
     24 H         141.2327  146.4318  160.2287 H       1  UNL1        0.1488
     25 S         141.0666  144.9436  161.6183 S.O2    1  UNL1        0.0603
     26 O         139.6219  145.2071  161.3126 O.2     1  UNL1       -0.1530
     27 O         142.5112  144.6800  161.9240 O.2     1  UNL1       -0.1530
     28 C         140.6880  144.4526  162.9843 C.ar    1  UNL1        0.1242
     29 C         141.4947  143.3736  163.6436 C.ar    1  UNL1        0.0200
     30 C         141.1162  142.8826  165.0095 C.ar    1  UNL1        0.0037
     31 C         139.9309  143.4707  165.7160 C.ar    1  UNL1        0.0297
     32 C         139.1242  144.5498  165.0566 C.ar    1  UNL1        0.1415
     33 F         137.9388  145.1379  165.7632 F       1  UNL1       -0.2041
     34 C         139.5027  145.0408  163.6908 C.ar    1  UNL1        0.0495
@<TRIPOS>BOND
     1    19    20    3
     2    20    13    1
     3    13    14   ar
     4    14    15   ar
     5    15    16   ar
     6    16    12    1
     7    12    11    1
     8    11    10    1
     9    10     1    1
    10     1     2    1
    11     2     3    1
    12     3     4    1
    13     4     5    1
    14     5    21    1
    15    21    22    1
    16    22    23    1
    17    23    25    1
    18    25    26    2
    19    25    27    2
    20    25    28    1
    21    28    29   ar
    22    29    30   ar
    23    30    31   ar
    24    31    32   ar
    25    32    33    1
    26    32    34   ar
    27     5     6    1
    28     6     7    1
    29     7     8    1
    30     7     9    1
    31    16    17   ar
    32    17    18   ar
    33    18    13   ar
    34     8     1    1
    35     9     3    1
    36    34    28   ar
    37    23    24    1
@<TRIPOS>MOLECULE
*****
 34 37 0 0 0
SMALL
GASTEIGER

@<TRIPOS>ATOM
      1 N         142.2467  139.8252  159.6153 N.3     1  UNL1       -0.2653
      2 C         143.2283  140.9594  159.6277 C.3     1  UNL1        0.1036
      3 C         142.7455  142.3671  159.8152 C.3     1  UNL1        0.1470
      4 C         142.2626  143.7749  160.0028 C.3     1  UNL1        0.1035
      5 N         140.7982  144.0484  160.1780 N.3     1  UNL1       -0.2673
      6 C         139.8167  142.9142  160.1656 C.3     1  UNL1        0.1035
      7 C         140.2995  141.5065  159.9780 C.3     1  UNL1        0.1470
      8 C         140.7823  140.0988  159.7905 C.3     1  UNL1        0.1036
      9 O         141.2811  142.6406  159.9904 O.3     1  UNL1       -0.3530
     10 C         142.7296  138.4174  159.4277 C.3     1  UNL1        0.1202
     11 C         142.7425  137.4680  160.5889 C.3     1  UNL1        0.2226
     12 O         142.9874  137.9832  161.9763 O.3     1  UNL1       -0.4740
     13 C         139.6076  138.1535  164.9424 C.ar    1  UNL1        0.0686
     14 C         140.9960  138.5335  165.3646 C.ar    1  UNL1        0.0134
     15 C         142.1225  138.4767  164.3759 C.ar    1  UNL1        0.0376
     16 C         141.8608  138.0399  162.9650 C.ar    1  UNL1        0.1387
     17 C         140.4726  137.6599  162.5428 C.ar    1  UNL1        0.0376
     18 C         139.3459  137.7167  163.5315 C.ar    1  UNL1        0.0134
     19 N         137.3545  138.2670  166.9198 N.1     1  UNL1       -0.1908
     20 C         138.4811  138.2102  165.9311 C.1     1  UNL1        0.1004
     21 C         140.3154  145.4561  160.3655 C.3     1  UNL1        0.0913
     22 C         139.8199  145.9065  161.7078 C.3     1  UNL1        0.1087
     23 N         140.7942  146.1674  162.8181 N.3     1  UNL1       -0.1780
     24 H         140.3693  146.8696  163.4237 H       1  UNL1        0.1488
     25 S         141.2392  145.0426  163.7051 S.O2    1  UNL1        0.0603
     26 O         139.8266  144.8519  164.1719 O.2     1  UNL1       -0.1530
     27 O         142.6519  145.2334  163.2382 O.2     1  UNL1       -0.1530
     28 C         141.6844  143.9178  164.5921 C.ar    1  UNL1        0.1242
     29 C         143.1184  143.4780  164.5830 C.ar    1  UNL1        0.0200
     30 C         143.5636  142.3533  165.4700 C.ar    1  UNL1        0.0037
     31 C         142.5747  141.6683  166.3660 C.ar    1  UNL1        0.0297
     32 C         141.1406  142.1081  166.3750 C.ar    1  UNL1        0.1415
     33 F         140.1517  141.4231  167.2711 F       1  UNL1       -0.2041
     34 C         140.6955  143.2329  165.4881 C.ar    1  UNL1        0.0495
@<TRIPOS>BOND
     1    19    20    3
     2    20    13    1
     3    13    14   ar
     4    14    15   ar
     5    15    16   ar
     6    16    12    1
     7    12    11    1
     8    11    10    1
     9    10     1    1
    10     1     2    1
    11     2     3    1
    12     3     4    1
    13     4     5    1
    14     5    21    1
    15    21    22    1
    16    22    23    1
    17    23    25    1
    18    25    26    2
    19    25    27    2
    20    25    28    1
    21    28    29   ar
    22    29    30   ar
    23    30    31   ar
    24    31    32   ar
    25    32    33    1
    26    32    34   ar
    27     5     6    1
    28     6     7    1
    29     7     8    1
    30     7     9    1
    31    16    17   ar
    32    17    18   ar
    33    18    13   ar
    34     8     1    1
    35     9     3    1
    36    34    28   ar
    37    23    24    1
