@<TRIPOS>MOLECULE
*****
 40 45 0 0 0
SMALL
GASTEIGER

@<TRIPOS>ATOM
      1 C         141.5089  144.0628  158.6536 C.3     1  UNL1        0.0758
      2 C         142.6757  143.2397  158.1939 C.3     1  UNL1        0.0370
      3 C         143.7330  142.8246  159.1735 C.3     1  UNL1        0.0741
      4 N         143.6236  143.2324  160.6129 N.3     1  UNL1       -0.2688
      5 C         142.4568  144.0555  161.0726 C.3     1  UNL1        0.0741
      6 C         141.3995  144.4706  160.0929 C.3     1  UNL1        0.0370
      7 O         142.1246  146.1299  156.5684 O.2     1  UNL1       -0.2528
      8 C         140.7595  145.5115  156.6313 C.2     1  UNL1        0.3006
      9 N         140.4516  144.4779  157.6739 N.am    1  UNL1       -0.2905
     10 N         139.7022  145.9267  155.6517 N.am    1  UNL1       -0.2920
     11 H         139.5556  144.0720  157.7152 H       1  UNL1        0.1509
     12 H         138.8062  145.5208  155.6930 H       1  UNL1        0.1508
     13 C         140.0100  146.9602  154.6090 C.3     1  UNL1        0.0604
     14 C         139.5408  148.3731  154.7921 C.3     1  UNL1        0.0182
     15 C         139.8486  149.4066  153.7495 C.3     1  UNL1        0.0039
     16 C         140.6257  149.0272  152.5238 C.3     1  UNL1        0.0003
     17 C         141.0949  147.6144  152.3408 C.3     1  UNL1        0.0039
     18 C         139.4832  147.7177  155.2045 C.3     1  UNL1        0.0270
     19 C         138.7637  148.7525  156.0177 C.3     1  UNL1        0.0899
     20 O         137.9866  149.1319  157.2434 O.3     1  UNL1       -0.3867
     21 C         139.0715  149.7860  154.9751 C.3     1  UNL1        0.0270
     22 C         139.2329  147.3396  155.8347 C.3     1  UNL1        0.0449
     23 C         140.7871  146.5809  153.3834 C.3     1  UNL1        0.0182
     24 H         137.7623  150.0748  157.2050 H       1  UNL1        0.2102
     25 C         144.6808  142.8173  161.5925 C.3     1  UNL1        0.1007
     26 C         144.2881  142.2633  162.9300 C.ar    1  UNL1        0.0129
     27 C         144.7256  140.9476  163.5024 C.ar    1  UNL1        0.0176
     28 C         144.0968  140.7989  164.8561 C.ar    1  UNL1        0.0799
     29 N         143.2707  142.0227  165.1204 N.ar    1  UNL1       -0.3038
     30 C         143.3889  142.9277  163.9300 C.ar    1  UNL1        0.0772
     31 C         142.4674  142.2938  166.3578 C.ar    1  UNL1        0.0640
     32 C         141.0216  142.6772  166.2444 C.ar    1  UNL1        0.0175
     33 C         140.2184  142.9483  167.4817 C.ar    1  UNL1        0.0053
     34 C         140.8608  142.8361  168.8325 C.ar    1  UNL1        0.0715
     35 C         142.3066  142.4528  168.9459 C.ar    1  UNL1        0.0053
     36 C         143.1098  142.1817  167.7086 C.ar    1  UNL1        0.0175
     37 C         140.0575  143.1073  170.0700 C.3     1  UNL1        0.4186
     38 F         139.2542  143.3784  171.3074 F       1  UNL1       -0.1659
     39 F         139.6946  141.6542  170.1528 F       1  UNL1       -0.1659
     40 F         140.4203  144.5603  169.9872 F       1  UNL1       -0.1659
@<TRIPOS>BOND
     1     7     8    2
     2     8     9   am
     3     9     1    1
     4     1     2    1
     5     2     3    1
     6     3     4    1
     7     4    25    1
     8    25    26    1
     9    26    27   ar
    10    27    28   ar
    11    28    29   ar
    12    29    31    1
    13    31    32   ar
    14    32    33   ar
    15    33    34   ar
    16    34    37    1
    17    37    38    1
    18    37    39    1
    19    37    40    1
    20    34    35   ar
    21    35    36   ar
    22    29    30   ar
    23     4     5    1
    24     5     6    1
    25     8    10   am
    26    10    13    1
    27    13    14    1
    28    14    15    1
    29    15    16    1
    30    16    17    1
    31    17    18    1
    32    18    19    1
    33    19    20    1
    34    19    21    1
    35    19    22    1
    36    17    23    1
    37     6     1    1
    38    22    13    1
    39    30    26   ar
    40    23    13    1
    41    36    31   ar
    42    21    15    1
    43     9    11    1
    44    10    12    1
    45    20    24    1
@<TRIPOS>MOLECULE
*****
 40 45 0 0 0
SMALL
GASTEIGER

@<TRIPOS>ATOM
      1 C         140.9471  144.0671  158.4245 C.3     1  UNL1        0.0758
      2 C         141.2604  144.6586  159.7668 C.3     1  UNL1        0.0370
      3 C         142.3026  144.0258  160.6405 C.3     1  UNL1        0.0741
      4 N         143.0316  142.8015  160.1718 N.3     1  UNL1       -0.2688
      5 C         142.7183  142.2100  158.8294 C.3     1  UNL1        0.0741
      6 C         141.6760  142.8428  157.9557 C.3     1  UNL1        0.0370
      7 O         141.7164  146.2422  156.5069 O.2     1  UNL1       -0.2528
      8 C         140.2895  145.7875  156.5920 C.2     1  UNL1        0.3006
      9 N         139.9049  144.6999  157.5508 N.am    1  UNL1       -0.2905
     10 N         139.2473  146.4202  155.7183 N.am    1  UNL1       -0.2920
     11 H         138.9684  144.4014  157.6067 H       1  UNL1        0.1509
     12 H         138.3108  146.1217  155.7742 H       1  UNL1        0.1508
     13 C         139.6319  147.5079  154.7595 C.3     1  UNL1        0.0604
     14 C         139.2329  148.9271  155.0360 C.3     1  UNL1        0.0182
     15 C         139.6175  150.0146  154.0772 C.3     1  UNL1        0.0039
     16 C         140.4011  149.6829  152.8419 C.3     1  UNL1        0.0003
     17 C         140.8001  148.2636  152.5655 C.3     1  UNL1        0.0039
     18 C         139.1321  148.2479  155.3985 C.3     1  UNL1        0.0270
     19 C         138.4493  149.2588  156.2713 C.3     1  UNL1        0.0899
     20 O         137.6657  149.5906  157.5066 O.3     1  UNL1       -0.3867
     21 C         138.8339  150.3463  155.3125 C.3     1  UNL1        0.0270
     22 C         138.8483  147.8396  155.9948 C.3     1  UNL1        0.0449
     23 C         140.4155  147.1761  153.5242 C.3     1  UNL1        0.0182
     24 H         137.4917  150.5445  157.5327 H       1  UNL1        0.2102
     25 C         144.0738  142.1687  161.0454 C.3     1  UNL1        0.1007
     26 C         143.6647  141.2284  162.1402 C.ar    1  UNL1        0.0129
     27 C         144.5769  140.3166  162.9060 C.ar    1  UNL1        0.0176
     28 C         143.7475  139.5595  163.9005 C.ar    1  UNL1        0.0799
     29 N         142.3227  140.0034  163.7492 N.ar    1  UNL1       -0.3038
     30 C         142.2715  141.0348  162.6613 C.ar    1  UNL1        0.0772
     31 C         141.1542  139.5036  164.5460 C.ar    1  UNL1        0.0640
     32 C         140.5961  138.1365  164.2821 C.ar    1  UNL1        0.0175
     33 C         139.4276  137.6369  165.0788 C.ar    1  UNL1        0.0053
     34 C         138.8172  138.5042  166.1395 C.ar    1  UNL1        0.0715
     35 C         139.3753  139.8713  166.4035 C.ar    1  UNL1        0.0053
     36 C         140.5437  140.3709  165.6067 C.ar    1  UNL1        0.0175
     37 C         137.6486  138.0044  166.9363 C.3     1  UNL1        0.4186
     38 F         136.4801  137.5047  167.7331 F       1  UNL1       -0.1659
     39 F         137.6692  136.7204  166.1612 F       1  UNL1       -0.1659
     40 F         137.6281  139.2884  167.7114 F       1  UNL1       -0.1659
@<TRIPOS>BOND
     1     7     8    2
     2     8     9   am
     3     9     1    1
     4     1     2    1
     5     2     3    1
     6     3     4    1
     7     4    25    1
     8    25    26    1
     9    26    27   ar
    10    27    28   ar
    11    28    29   ar
    12    29    31    1
    13    31    32   ar
    14    32    33   ar
    15    33    34   ar
    16    34    37    1
    17    37    38    1
    18    37    39    1
    19    37    40    1
    20    34    35   ar
    21    35    36   ar
    22    29    30   ar
    23     4     5    1
    24     5     6    1
    25     8    10   am
    26    10    13    1
    27    13    14    1
    28    14    15    1
    29    15    16    1
    30    16    17    1
    31    17    18    1
    32    18    19    1
    33    19    20    1
    34    19    21    1
    35    19    22    1
    36    17    23    1
    37     6     1    1
    38    22    13    1
    39    30    26   ar
    40    23    13    1
    41    36    31   ar
    42    21    15    1
    43     9    11    1
    44    10    12    1
    45    20    24    1
@<TRIPOS>MOLECULE
*****
 40 45 0 0 0
SMALL
GASTEIGER

@<TRIPOS>ATOM
      1 C         142.1683  138.8928  158.8633 C.3     1  UNL1        0.0758
      2 C         141.9597  140.3579  158.6181 C.3     1  UNL1        0.0370
      3 C         140.9917  141.1297  159.4649 C.3     1  UNL1        0.0741
      4 N         140.2321  140.4365  160.5570 N.3     1  UNL1       -0.2688
      5 C         140.4407  138.9714  160.8022 C.3     1  UNL1        0.0741
      6 C         141.4088  138.1996  159.9554 C.3     1  UNL1        0.0370
      7 O         141.1573  136.8526  156.9100 O.2     1  UNL1       -0.2528
      8 C         142.6309  137.1008  157.0399 C.2     1  UNL1        0.3006
      9 N         143.1364  138.1210  158.0166 N.am    1  UNL1       -0.2905
     10 N         143.5990  136.3290  156.1931 N.am    1  UNL1       -0.2920
     11 H         144.1036  138.2839  158.1018 H       1  UNL1        0.1509
     12 H         144.5661  136.4920  156.2784 H       1  UNL1        0.1508
     13 C         143.0934  135.3089  155.2164 C.3     1  UNL1        0.0604
     14 C         143.2476  133.8465  155.5123 C.3     1  UNL1        0.0182
     15 C         142.7421  132.8264  154.5356 C.3     1  UNL1        0.0039
     16 C         142.0825  133.2688  153.2631 C.3     1  UNL1        0.0003
     17 C         141.9284  134.7312  152.9673 C.3     1  UNL1        0.0039
     18 C         143.4374  134.5038  155.8793 C.3     1  UNL1        0.0270
     19 C         143.9071  133.4041  156.7848 C.3     1  UNL1        0.0899
     20 O         144.5667  132.9618  158.0573 O.3     1  UNL1       -0.3867
     21 C         143.4017  132.3841  155.8081 C.3     1  UNL1        0.0270
     22 C         143.7530  134.8665  156.4889 C.3     1  UNL1        0.0449
     23 C         142.4338  135.7512  153.9439 C.3     1  UNL1        0.0182
     24 H         144.5852  131.9926  158.0919 H       1  UNL1        0.2102
     25 C         139.2640  141.2083  161.4037 C.3     1  UNL1        0.1007
     26 C         139.1649  140.9284  162.8741 C.ar    1  UNL1        0.0129
     27 C         137.8959  140.7949  163.6626 C.ar    1  UNL1        0.0176
     28 C         138.2640  140.5169  165.0899 C.ar    1  UNL1        0.0799
     29 N         139.7606  140.4786  165.1835 N.ar    1  UNL1       -0.3038
     30 C         140.3173  140.7329  163.8140 C.ar    1  UNL1        0.0772
     31 C         140.5601  140.2297  166.4280 C.ar    1  UNL1        0.0640
     32 C         139.9156  140.3738  167.7748 C.ar    1  UNL1        0.0175
     33 C         140.7152  140.1248  169.0193 C.ar    1  UNL1        0.0053
     34 C         142.1591  139.7318  168.9170 C.ar    1  UNL1        0.0715
     35 C         142.8036  139.5878  167.5701 C.ar    1  UNL1        0.0053
     36 C         142.0041  139.8367  166.3257 C.ar    1  UNL1        0.0175
     37 C         142.9587  139.4829  170.1615 C.3     1  UNL1        0.4186
     38 F         143.7583  139.2340  171.4060 F       1  UNL1       -0.1659
     39 F         143.5055  140.8778  170.0892 F       1  UNL1       -0.1659
     40 F         142.4119  138.0881  170.2338 F       1  UNL1       -0.1659
@<TRIPOS>BOND
     1     7     8    2
     2     8     9   am
     3     9     1    1
     4     1     2    1
     5     2     3    1
     6     3     4    1
     7     4    25    1
     8    25    26    1
     9    26    27   ar
    10    27    28   ar
    11    28    29   ar
    12    29    31    1
    13    31    32   ar
    14    32    33   ar
    15    33    34   ar
    16    34    37    1
    17    37    38    1
    18    37    39    1
    19    37    40    1
    20    34    35   ar
    21    35    36   ar
    22    29    30   ar
    23     4     5    1
    24     5     6    1
    25     8    10   am
    26    10    13    1
    27    13    14    1
    28    14    15    1
    29    15    16    1
    30    16    17    1
    31    17    18    1
    32    18    19    1
    33    19    20    1
    34    19    21    1
    35    19    22    1
    36    17    23    1
    37     6     1    1
    38    22    13    1
    39    30    26   ar
    40    23    13    1
    41    36    31   ar
    42    21    15    1
    43     9    11    1
    44    10    12    1
    45    20    24    1
@<TRIPOS>MOLECULE
*****
 40 45 0 0 0
SMALL
GASTEIGER

@<TRIPOS>ATOM
      1 C         142.5795  139.0851  157.8605 C.3     1  UNL1        0.0758
      2 C         141.9299  140.2526  157.1787 C.3     1  UNL1        0.0370
      3 C         141.0809  141.2046  157.9678 C.3     1  UNL1        0.0741
      4 N         140.8814  140.9890  159.4388 N.3     1  UNL1       -0.2688
      5 C         141.5310  139.8215  160.1206 C.3     1  UNL1        0.0741
      6 C         142.3801  138.8695  159.3314 C.3     1  UNL1        0.0370
      7 O         141.3363  136.6728  156.5816 O.2     1  UNL1       -0.2528
      8 C         142.8070  136.9270  156.4319 C.2     1  UNL1        0.3006
      9 N         143.4286  138.1331  157.0713 N.am    1  UNL1       -0.2905
     10 N         143.6561  135.9750  155.6427 N.am    1  UNL1       -0.2920
     11 H         144.3939  138.2999  156.9731 H       1  UNL1        0.1509
     12 H         144.6213  136.1418  155.5445 H       1  UNL1        0.1508
     13 C         143.0344  134.7688  155.0033 C.3     1  UNL1        0.0604
     14 C         143.1036  133.4368  155.6893 C.3     1  UNL1        0.0182
     15 C         142.4820  132.2307  155.0499 C.3     1  UNL1        0.0039
     16 C         141.7912  132.3567  153.7244 C.3     1  UNL1        0.0003
     17 C         141.7221  133.6888  153.0383 C.3     1  UNL1        0.0039
     18 C         143.3556  134.1526  155.8535 C.3     1  UNL1        0.0270
     19 C         143.7943  133.3107  157.0148 C.3     1  UNL1        0.0899
     20 O         144.4851  133.1847  158.3403 O.3     1  UNL1       -0.3867
     21 C         143.1727  132.1047  156.3754 C.3     1  UNL1        0.0270
     22 C         143.7252  134.6428  156.3288 C.3     1  UNL1        0.0449
     23 C         142.3437  134.8949  153.6778 C.3     1  UNL1        0.0182
     24 H         144.4395  132.2641  158.6425 H       1  UNL1        0.2102
     25 C         140.0323  141.9410  160.2280 C.3     1  UNL1        0.1007
     26 C         139.3660  141.4816  161.4909 C.ar    1  UNL1        0.0129
     27 C         137.9545  140.9893  161.6144 C.ar    1  UNL1        0.0176
     28 C         137.7104  140.6372  163.0520 C.ar    1  UNL1        0.0799
     29 N         138.9711  140.9120  163.8170 N.ar    1  UNL1       -0.3038
     30 C         139.9943  141.4338  162.8522 C.ar    1  UNL1        0.0772
     31 C         139.1731  140.7018  165.2883 C.ar    1  UNL1        0.0640
     32 C         140.0843  141.6116  166.0578 C.ar    1  UNL1        0.0175
     33 C         140.2863  141.4013  167.5291 C.ar    1  UNL1        0.0053
     34 C         139.5771  140.2814  168.2311 C.ar    1  UNL1        0.0715
     35 C         138.6659  139.3716  167.4616 C.ar    1  UNL1        0.0053
     36 C         138.4639  139.5819  165.9903 C.ar    1  UNL1        0.0175
     37 C         139.7791  140.0712  169.7025 C.3     1  UNL1        0.4186
     38 F         139.9811  139.8610  171.1739 F       1  UNL1       -0.1659
     39 F         138.4134  140.6309  169.9699 F       1  UNL1       -0.1659
     40 F         141.1448  139.5115  169.4351 F       1  UNL1       -0.1659
@<TRIPOS>BOND
     1     7     8    2
     2     8     9   am
     3     9     1    1
     4     1     2    1
     5     2     3    1
     6     3     4    1
     7     4    25    1
     8    25    26    1
     9    26    27   ar
    10    27    28   ar
    11    28    29   ar
    12    29    31    1
    13    31    32   ar
    14    32    33   ar
    15    33    34   ar
    16    34    37    1
    17    37    38    1
    18    37    39    1
    19    37    40    1
    20    34    35   ar
    21    35    36   ar
    22    29    30   ar
    23     4     5    1
    24     5     6    1
    25     8    10   am
    26    10    13    1
    27    13    14    1
    28    14    15    1
    29    15    16    1
    30    16    17    1
    31    17    18    1
    32    18    19    1
    33    19    20    1
    34    19    21    1
    35    19    22    1
    36    17    23    1
    37     6     1    1
    38    22    13    1
    39    30    26   ar
    40    23    13    1
    41    36    31   ar
    42    21    15    1
    43     9    11    1
    44    10    12    1
    45    20    24    1
@<TRIPOS>MOLECULE
*****
 40 45 0 0 0
SMALL
GASTEIGER

@<TRIPOS>ATOM
      1 C         138.1922  139.8328  159.8346 C.3     1  UNL1        0.0758
      2 C         139.1904  138.7196  159.7140 C.3     1  UNL1        0.0370
      3 C         139.8319  138.4277  158.3899 C.3     1  UNL1        0.0741
      4 N         139.4754  139.2490  157.1864 N.3     1  UNL1       -0.2688
      5 C         138.4772  140.3622  157.3070 C.3     1  UNL1        0.0741
      6 C         137.8357  140.6541  158.6312 C.3     1  UNL1        0.0370
      7 O         139.7868  141.1280  162.0209 O.2     1  UNL1       -0.2528
      8 C         138.3480  140.7723  162.2519 C.2     1  UNL1        0.3006
      9 N         137.5507  140.1247  161.1586 N.am    1  UNL1       -0.2905
     10 N         137.7064  141.0642  163.5759 N.am    1  UNL1       -0.2920
     11 H         136.6064  139.8912  161.3102 H       1  UNL1        0.1509
     12 H         136.7621  140.8307  163.7275 H       1  UNL1        0.1508
     13 C         138.5037  141.7119  164.6691 C.3     1  UNL1        0.0604
     14 C         138.6377  143.2051  164.7158 C.3     1  UNL1        0.0182
     15 C         139.4349  143.8526  165.8090 C.3     1  UNL1        0.0039
     16 C         140.0981  143.0070  166.8554 C.3     1  UNL1        0.0003
     17 C         139.9640  141.5137  166.8087 C.3     1  UNL1        0.0039
     18 C         138.2800  142.7004  164.2465 C.3     1  UNL1        0.0270
     19 C         137.9746  144.0508  163.6694 C.3     1  UNL1        0.0899
     20 O         137.3114  144.8964  162.6229 O.3     1  UNL1       -0.3867
     21 C         138.7718  144.6983  164.7626 C.3     1  UNL1        0.0270
     22 C         137.8405  142.5575  163.6227 C.3     1  UNL1        0.0449
     23 C         139.1668  140.8662  165.7156 C.3     1  UNL1        0.0182
     24 H         137.4963  145.8323  162.7986 H       1  UNL1        0.2102
     25 C         140.1169  138.9571  155.8623 C.3     1  UNL1        0.1007
     26 C         140.5655  137.5631  155.5374 C.ar    1  UNL1        0.0129
     27 C         140.2830  136.8200  154.2654 C.ar    1  UNL1        0.0176
     28 C         140.9183  135.4651  154.3692 C.ar    1  UNL1        0.0799
     29 N         141.5935  135.3709  155.7053 N.ar    1  UNL1       -0.3038
     30 C         141.3754  136.6676  156.4273 C.ar    1  UNL1        0.0772
     31 C         142.3533  134.1878  156.2278 C.ar    1  UNL1        0.0640
     32 C         141.9414  132.7996  155.8365 C.ar    1  UNL1        0.0175
     33 C         142.7012  131.6166  156.3590 C.ar    1  UNL1        0.0053
     34 C         143.8729  131.8217  157.2728 C.ar    1  UNL1        0.0715
     35 C         144.2848  133.2100  157.6640 C.ar    1  UNL1        0.0053
     36 C         143.5250  134.3930  157.1416 C.ar    1  UNL1        0.0175
     37 C         144.6328  130.6386  157.7953 C.3     1  UNL1        0.4186
     38 F         145.3926  129.4555  158.3178 F       1  UNL1       -0.1659
     39 F         143.5773  129.7212  157.2528 F       1  UNL1       -0.1659
     40 F         145.6882  131.5561  158.3377 F       1  UNL1       -0.1659
@<TRIPOS>BOND
     1     7     8    2
     2     8     9   am
     3     9     1    1
     4     1     2    1
     5     2     3    1
     6     3     4    1
     7     4    25    1
     8    25    26    1
     9    26    27   ar
    10    27    28   ar
    11    28    29   ar
    12    29    31    1
    13    31    32   ar
    14    32    33   ar
    15    33    34   ar
    16    34    37    1
    17    37    38    1
    18    37    39    1
    19    37    40    1
    20    34    35   ar
    21    35    36   ar
    22    29    30   ar
    23     4     5    1
    24     5     6    1
    25     8    10   am
    26    10    13    1
    27    13    14    1
    28    14    15    1
    29    15    16    1
    30    16    17    1
    31    17    18    1
    32    18    19    1
    33    19    20    1
    34    19    21    1
    35    19    22    1
    36    17    23    1
    37     6     1    1
    38    22    13    1
    39    30    26   ar
    40    23    13    1
    41    36    31   ar
    42    21    15    1
    43     9    11    1
    44    10    12    1
    45    20    24    1
@<TRIPOS>MOLECULE
*****
 40 45 0 0 0
SMALL
GASTEIGER

@<TRIPOS>ATOM
      1 C         140.2080  145.1074  157.3425 C.3     1  UNL1        0.0758
      2 C         139.3754  146.0377  156.5111 C.3     1  UNL1        0.0370
      3 C         138.7429  145.5473  155.2425 C.3     1  UNL1        0.0741
      4 N         138.9430  144.1264  154.8053 N.3     1  UNL1       -0.2688
      5 C         139.7756  143.1960  155.6367 C.3     1  UNL1        0.0741
      6 C         140.4081  143.6866  156.9053 C.3     1  UNL1        0.0370
      7 O         139.3046  144.0180  159.9877 O.2     1  UNL1       -0.2528
      8 C         140.3887  145.0532  159.9337 C.2     1  UNL1        0.3006
      9 N         140.8404  145.5979  158.6111 N.am    1  UNL1       -0.2905
     10 N         141.0212  145.5436  161.2023 N.am    1  UNL1       -0.2920
     11 H         141.5520  146.2773  158.5756 H       1  UNL1        0.1509
     12 H         141.7328  146.2231  161.1669 H       1  UNL1        0.1508
     13 C         140.5695  144.9989  162.5250 C.3     1  UNL1        0.0604
     14 C         141.5434  144.2833  163.4134 C.3     1  UNL1        0.0182
     15 C         141.0917  143.7386  164.7360 C.3     1  UNL1        0.0039
     16 C         139.6661  143.9096  165.1701 C.3     1  UNL1        0.0003
     17 C         138.6922  144.6252  164.2816 C.3     1  UNL1        0.0039
     18 C         141.5837  144.6242  162.7170 C.3     1  UNL1        0.0270
     19 C         142.9690  144.1124  162.9793 C.3     1  UNL1        0.0899
     20 O         144.3946  143.9414  162.5452 O.3     1  UNL1       -0.3867
     21 C         142.5173  143.5677  164.3019 C.3     1  UNL1        0.0270
     22 C         141.9951  144.8280  162.0909 C.3     1  UNL1        0.0449
     23 C         139.1439  145.1699  162.9591 C.3     1  UNL1        0.0182
     24 H         144.8857  143.4610  163.2299 H       1  UNL1        0.2102
     25 C         138.3106  143.6359  153.5367 C.3     1  UNL1        0.1007
     26 C         136.9764  142.9516  153.5796 C.ar    1  UNL1        0.0129
     27 C         136.0729  142.7070  152.4075 C.ar    1  UNL1        0.0176
     28 C         134.8496  141.9960  152.9056 C.ar    1  UNL1        0.0799
     29 N         134.9971  141.8012  154.3856 N.ar    1  UNL1       -0.3038
     30 C         136.3116  142.3918  154.8021 C.ar    1  UNL1        0.0772
     31 C         134.0045  141.1331  155.2902 C.ar    1  UNL1        0.0640
     32 C         132.5432  141.4464  155.1618 C.ar    1  UNL1        0.0175
     33 C         131.5507  140.7783  156.0665 C.ar    1  UNL1        0.0053
     34 C         132.0194  139.7968  157.0995 C.ar    1  UNL1        0.0715
     35 C         133.4807  139.4835  157.2278 C.ar    1  UNL1        0.0053
     36 C         134.4732  140.1516  156.3232 C.ar    1  UNL1        0.0175
     37 C         131.0268  139.1287  158.0042 C.3     1  UNL1        0.4186
     38 F         130.0342  138.4606  158.9088 F       1  UNL1       -0.1659
     39 F         129.9321  139.9789  157.4309 F       1  UNL1       -0.1659
     40 F         132.1215  138.2785  158.5773 F       1  UNL1       -0.1659
@<TRIPOS>BOND
     1     7     8    2
     2     8     9   am
     3     9     1    1
     4     1     2    1
     5     2     3    1
     6     3     4    1
     7     4    25    1
     8    25    26    1
     9    26    27   ar
    10    27    28   ar
    11    28    29   ar
    12    29    31    1
    13    31    32   ar
    14    32    33   ar
    15    33    34   ar
    16    34    37    1
    17    37    38    1
    18    37    39    1
    19    37    40    1
    20    34    35   ar
    21    35    36   ar
    22    29    30   ar
    23     4     5    1
    24     5     6    1
    25     8    10   am
    26    10    13    1
    27    13    14    1
    28    14    15    1
    29    15    16    1
    30    16    17    1
    31    17    18    1
    32    18    19    1
    33    19    20    1
    34    19    21    1
    35    19    22    1
    36    17    23    1
    37     6     1    1
    38    22    13    1
    39    30    26   ar
    40    23    13    1
    41    36    31   ar
    42    21    15    1
    43     9    11    1
    44    10    12    1
    45    20    24    1
@<TRIPOS>MOLECULE
*****
 40 45 0 0 0
SMALL
GASTEIGER

@<TRIPOS>ATOM
      1 C         142.9772  139.3344  157.8381 C.3     1  UNL1        0.0758
      2 C         142.3774  140.5512  157.1980 C.3     1  UNL1        0.0370
      3 C         141.6599  141.5647  158.0394 C.3     1  UNL1        0.0741
      4 N         141.5422  141.3615  159.5209 N.3     1  UNL1       -0.2688
      5 C         142.1420  140.1447  160.1610 C.3     1  UNL1        0.0741
      6 C         142.8595  139.1312  159.3195 C.3     1  UNL1        0.0370
      7 O         141.4998  136.9479  156.7789 O.2     1  UNL1       -0.2528
      8 C         142.9560  137.1276  156.4671 C.2     1  UNL1        0.3006
      9 N         143.6947  138.3209  156.9967 N.am    1  UNL1       -0.2905
     10 N         143.6735  136.1141  155.6257 N.am    1  UNL1       -0.2920
     11 H         144.6504  138.4389  156.7920 H       1  UNL1        0.1509
     12 H         144.6292  136.2321  155.4211 H       1  UNL1        0.1508
     13 C         142.9348  134.9208  155.0961 C.3     1  UNL1        0.0604
     14 C         142.9129  133.6430  155.8814 C.3     1  UNL1        0.0182
     15 C         142.1742  132.4498  155.3518 C.3     1  UNL1        0.0039
     16 C         141.4574  132.5343  154.0369 C.3     1  UNL1        0.0003
     17 C         141.4793  133.8121  153.2516 C.3     1  UNL1        0.0039
     18 C         143.2285  134.3450  155.9838 C.3     1  UNL1        0.0270
     19 C         143.6297  133.5584  157.1964 C.3     1  UNL1        0.0899
     20 O         144.3465  133.4739  158.5113 O.3     1  UNL1       -0.3867
     21 C         142.8911  132.3652  156.6668 C.3     1  UNL1        0.0270
     22 C         143.6516  134.8362  156.4111 C.3     1  UNL1        0.0449
     23 C         142.2180  135.0053  153.7812 C.3     1  UNL1        0.0182
     24 H         144.2333  132.5859  158.8847 H       1  UNL1        0.2102
     25 C         140.8247  142.3750  160.3623 C.3     1  UNL1        0.1007
     26 C         141.4137  142.8171  161.6690 C.ar    1  UNL1        0.0129
     27 C         142.4666  143.8700  161.8503 C.ar    1  UNL1        0.0176
     28 C         142.7568  143.9876  163.3173 C.ar    1  UNL1        0.0799
     29 N         141.8832  143.0075  164.0427 N.ar    1  UNL1       -0.3038
     30 C         141.0531  142.2841  163.0240 C.ar    1  UNL1        0.0772
     31 C         141.8462  142.7890  165.5262 C.ar    1  UNL1        0.0640
     32 C         140.5531  142.9306  166.2731 C.ar    1  UNL1        0.0175
     33 C         140.5162  142.7121  167.7566 C.ar    1  UNL1        0.0053
     34 C         141.7723  142.3522  168.4932 C.ar    1  UNL1        0.0715
     35 C         143.0654  142.2106  167.7463 C.ar    1  UNL1        0.0053
     36 C         143.1023  142.4291  166.2628 C.ar    1  UNL1        0.0175
     37 C         141.7354  142.1337  169.9768 C.3     1  UNL1        0.4186
     38 F         141.6984  141.9153  171.4604 F       1  UNL1       -0.1659
     39 F         142.5268  143.3913  170.1817 F       1  UNL1       -0.1659
     40 F         140.9439  140.8761  169.7719 F       1  UNL1       -0.1659
@<TRIPOS>BOND
     1     7     8    2
     2     8     9   am
     3     9     1    1
     4     1     2    1
     5     2     3    1
     6     3     4    1
     7     4    25    1
     8    25    26    1
     9    26    27   ar
    10    27    28   ar
    11    28    29   ar
    12    29    31    1
    13    31    32   ar
    14    32    33   ar
    15    33    34   ar
    16    34    37    1
    17    37    38    1
    18    37    39    1
    19    37    40    1
    20    34    35   ar
    21    35    36   ar
    22    29    30   ar
    23     4     5    1
    24     5     6    1
    25     8    10   am
    26    10    13    1
    27    13    14    1
    28    14    15    1
    29    15    16    1
    30    16    17    1
    31    17    18    1
    32    18    19    1
    33    19    20    1
    34    19    21    1
    35    19    22    1
    36    17    23    1
    37     6     1    1
    38    22    13    1
    39    30    26   ar
    40    23    13    1
    41    36    31   ar
    42    21    15    1
    43     9    11    1
    44    10    12    1
    45    20    24    1
@<TRIPOS>MOLECULE
*****
 40 45 0 0 0
SMALL
GASTEIGER

@<TRIPOS>ATOM
      1 C         138.6000  139.3917  164.6247 C.3     1  UNL1        0.0758
      2 C         137.8984  140.5772  164.0310 C.3     1  UNL1        0.0370
      3 C         137.6825  140.6560  162.5487 C.3     1  UNL1        0.0741
      4 N         138.1682  139.5494  161.6601 N.3     1  UNL1       -0.2688
      5 C         138.8698  138.3640  162.2538 C.3     1  UNL1        0.0741
      6 C         139.0857  138.2852  163.7361 C.3     1  UNL1        0.0370
      7 O         140.1567  141.5370  166.0300 O.2     1  UNL1       -0.2528
      8 C         139.5943  140.3855  166.8096 C.2     1  UNL1        0.3006
      9 N         138.8160  139.3129  166.1069 N.am    1  UNL1       -0.2905
     10 N         139.8102  140.3066  168.2919 N.am    1  UNL1       -0.2920
     11 H         138.4469  138.5571  166.6186 H       1  UNL1        0.1509
     12 H         139.4411  139.5509  168.8036 H       1  UNL1        0.1508
     13 C         140.5886  141.3793  168.9946 C.3     1  UNL1        0.0604
     14 C         141.9439  141.0741  169.5602 C.3     1  UNL1        0.0182
     15 C         142.7221  142.1468  170.2629 C.3     1  UNL1        0.0039
     16 C         142.1450  143.5245  170.3999 C.3     1  UNL1        0.0003
     17 C         140.7898  143.8297  169.8342 C.3     1  UNL1        0.0039
     18 C         141.4053  140.6680  169.1757 C.3     1  UNL1        0.0270
     19 C         142.5209  139.6964  169.4232 C.3     1  UNL1        0.0899
     20 O         143.0980  138.3186  169.2862 O.3     1  UNL1       -0.3867
     21 C         143.2992  140.7690  170.1259 C.3     1  UNL1        0.0270
     22 C         141.1656  140.0015  168.8576 C.3     1  UNL1        0.0449
     23 C         140.0115  142.7571  169.1316 C.3     1  UNL1        0.0182
     24 H         143.9734  138.2918  169.7031 H       1  UNL1        0.2102
     25 C         137.9523  139.6283  160.1779 C.3     1  UNL1        0.1007
     26 C         138.7672  140.5778  159.3507 C.ar    1  UNL1        0.0129
     27 C         140.1953  140.3831  158.9353 C.ar    1  UNL1        0.0176
     28 C         140.6079  141.5737  158.1215 C.ar    1  UNL1        0.0799
     29 N         139.4348  142.5043  158.0340 N.ar    1  UNL1       -0.3038
     30 C         138.2972  141.8888  158.7936 C.ar    1  UNL1        0.0772
     31 C         139.4045  143.8195  157.3133 C.ar    1  UNL1        0.0640
     32 C         138.5649  143.9802  156.0807 C.ar    1  UNL1        0.0175
     33 C         138.5347  145.2954  155.3602 C.ar    1  UNL1        0.0053
     34 C         139.3441  146.4499  155.8721 C.ar    1  UNL1        0.0715
     35 C         140.1837  146.2891  157.1047 C.ar    1  UNL1        0.0053
     36 C         140.2139  144.9740  157.8252 C.ar    1  UNL1        0.0175
     37 C         139.3138  147.7651  155.1514 C.3     1  UNL1        0.4186
     38 F         139.2836  149.0803  154.4308 F       1  UNL1       -0.1659
     39 F         140.0163  147.1407  153.9824 F       1  UNL1       -0.1659
     40 F         138.6114  148.3895  156.3205 F       1  UNL1       -0.1659
@<TRIPOS>BOND
     1     7     8    2
     2     8     9   am
     3     9     1    1
     4     1     2    1
     5     2     3    1
     6     3     4    1
     7     4    25    1
     8    25    26    1
     9    26    27   ar
    10    27    28   ar
    11    28    29   ar
    12    29    31    1
    13    31    32   ar
    14    32    33   ar
    15    33    34   ar
    16    34    37    1
    17    37    38    1
    18    37    39    1
    19    37    40    1
    20    34    35   ar
    21    35    36   ar
    22    29    30   ar
    23     4     5    1
    24     5     6    1
    25     8    10   am
    26    10    13    1
    27    13    14    1
    28    14    15    1
    29    15    16    1
    30    16    17    1
    31    17    18    1
    32    18    19    1
    33    19    20    1
    34    19    21    1
    35    19    22    1
    36    17    23    1
    37     6     1    1
    38    22    13    1
    39    30    26   ar
    40    23    13    1
    41    36    31   ar
    42    21    15    1
    43     9    11    1
    44    10    12    1
    45    20    24    1
@<TRIPOS>MOLECULE
*****
 40 45 0 0 0
SMALL
GASTEIGER

@<TRIPOS>ATOM
      1 C         138.7166  139.1720  164.7883 C.3     1  UNL1        0.0758
      2 C         138.0579  140.3467  164.1280 C.3     1  UNL1        0.0370
      3 C         137.8836  140.3693  162.6383 C.3     1  UNL1        0.0741
      4 N         138.3680  139.2171  161.8089 N.3     1  UNL1       -0.2688
      5 C         139.0268  138.0423  162.4693 C.3     1  UNL1        0.0741
      6 C         139.2011  138.0198  163.9590 C.3     1  UNL1        0.0370
      7 O         140.2919  141.3335  166.1471 O.2     1  UNL1       -0.2528
      8 C         139.6786  140.2302  166.9574 C.2     1  UNL1        0.3006
      9 N         138.8910  139.1494  166.2779 N.am    1  UNL1       -0.2905
     10 N         139.8529  140.2076  168.4470 N.am    1  UNL1       -0.2920
     11 H         138.4884  138.4252  166.8097 H       1  UNL1        0.1509
     12 H         139.4504  139.4835  168.9788 H       1  UNL1        0.1508
     13 C         140.6406  141.2884  169.1264 C.3     1  UNL1        0.0604
     14 C         141.9689  140.9713  169.7469 C.3     1  UNL1        0.0182
     15 C         142.7564  142.0520  170.4263 C.3     1  UNL1        0.0039
     16 C         142.2157  143.4499  170.4852 C.3     1  UNL1        0.0003
     17 C         140.8874  143.7671  169.8648 C.3     1  UNL1        0.0039
     18 C         141.4305  140.5635  169.3637 C.3     1  UNL1        0.0270
     19 C         142.5096  139.5734  169.6879 C.3     1  UNL1        0.0899
     20 O         143.0503  138.1755  169.6289 O.3     1  UNL1       -0.3867
     21 C         143.2972  140.6541  170.3673 C.3     1  UNL1        0.0270
     22 C         141.1813  139.8905  169.0675 C.3     1  UNL1        0.0449
     23 C         140.0998  142.6863  169.1854 C.3     1  UNL1        0.0182
     24 H         143.9117  138.1429  170.0738 H       1  UNL1        0.2102
     25 C         138.1937  139.2396  160.3193 C.3     1  UNL1        0.1007
     26 C         139.3936  139.1619  159.4225 C.ar    1  UNL1        0.0129
     27 C         139.6623  138.0982  158.3996 C.ar    1  UNL1        0.0176
     28 C         140.9702  138.4130  157.7360 C.ar    1  UNL1        0.0799
     29 N         141.5098  139.6713  158.3488 N.ar    1  UNL1       -0.3038
     30 C         140.5354  140.1341  159.3911 C.ar    1  UNL1        0.0772
     31 C         142.7977  140.3479  157.9835 C.ar    1  UNL1        0.0640
     32 C         143.6206  139.8282  156.8421 C.ar    1  UNL1        0.0175
     33 C         144.9084  140.5049  156.4769 C.ar    1  UNL1        0.0053
     34 C         145.3734  141.7013  157.2530 C.ar    1  UNL1        0.0715
     35 C         144.5505  142.2211  158.3944 C.ar    1  UNL1        0.0053
     36 C         143.2627  141.5444  158.7596 C.ar    1  UNL1        0.0175
     37 C         146.6614  142.3781  156.8877 C.3     1  UNL1        0.4186
     38 F         147.9492  143.0548  156.5225 F       1  UNL1       -0.1659
     39 F         146.6987  143.0345  158.2359 F       1  UNL1       -0.1659
     40 F         146.6239  141.7217  155.5396 F       1  UNL1       -0.1659
@<TRIPOS>BOND
     1     7     8    2
     2     8     9   am
     3     9     1    1
     4     1     2    1
     5     2     3    1
     6     3     4    1
     7     4    25    1
     8    25    26    1
     9    26    27   ar
    10    27    28   ar
    11    28    29   ar
    12    29    31    1
    13    31    32   ar
    14    32    33   ar
    15    33    34   ar
    16    34    37    1
    17    37    38    1
    18    37    39    1
    19    37    40    1
    20    34    35   ar
    21    35    36   ar
    22    29    30   ar
    23     4     5    1
    24     5     6    1
    25     8    10   am
    26    10    13    1
    27    13    14    1
    28    14    15    1
    29    15    16    1
    30    16    17    1
    31    17    18    1
    32    18    19    1
    33    19    20    1
    34    19    21    1
    35    19    22    1
    36    17    23    1
    37     6     1    1
    38    22    13    1
    39    30    26   ar
    40    23    13    1
    41    36    31   ar
    42    21    15    1
    43     9    11    1
    44    10    12    1
    45    20    24    1
