@<TRIPOS>MOLECULE
*****
 30 33 0 0 0
SMALL
GASTEIGER

@<TRIPOS>ATOM
      1 N         140.6797  142.3163  164.6296 N.ar    1  UNL1       -0.2107
      2 N         140.9835  143.3256  163.5624 N.ar    1  UNL1       -0.1441
      3 C         140.3955  142.8299  162.2746 C.ar    1  UNL1        0.1864
      4 N         139.7282  141.5141  162.5459 N.ar    1  UNL1       -0.2059
      5 C         139.9039  141.1967  164.0014 C.ar    1  UNL1        0.1683
      6 C         140.4628  143.5274  160.9484 C.ar    1  UNL1        0.0712
      7 C         139.5362  143.1229  159.8403 C.ar    1  UNL1        0.0061
      8 C         139.6036  143.8205  158.5141 C.ar    1  UNL1        0.0003
      9 C         140.5975  144.9224  158.2959 C.ar    1  UNL1        0.0031
     10 C         141.5241  145.3269  159.4040 C.ar    1  UNL1        0.0367
     11 C         141.4568  144.6294  160.7302 C.ar    1  UNL1        0.1366
     12 O         142.3834  145.0339  161.8382 O.3     1  UNL1       -0.5054
     13 H         143.0043  145.7223  161.7019 H       1  UNL1        0.2922
     14 C         139.3934  139.9743  164.7050 C.ar    1  UNL1        0.0695
     15 C         138.4257  140.1131  165.8428 C.ar    1  UNL1        0.0061
     16 C         137.9152  138.8907  166.5465 C.ar    1  UNL1        0.0003
     17 C         138.3724  137.5296  166.1125 C.ar    1  UNL1        0.0031
     18 C         139.3401  137.3909  164.9748 C.ar    1  UNL1        0.0367
     19 C         139.8506  138.6133  164.2711 C.ar    1  UNL1        0.1365
     20 O         140.8183  138.4744  163.1334 O.3     1  UNL1       -0.5054
     21 H         141.1038  137.6242  162.8623 H       1  UNL1        0.2922
     22 C         141.8842  142.5976  168.9563 C.ar    1  UNL1        0.0141
     23 C         140.5194  143.0480  168.5269 C.ar    1  UNL1        0.0027
     24 C         140.1179  142.9543  167.0847 C.ar    1  UNL1        0.0192
     25 C         141.0812  142.4101  166.0718 C.ar    1  UNL1        0.0845
     26 C         142.4460  141.9597  166.5012 C.ar    1  UNL1        0.0192
     27 C         142.8475  142.0534  167.9434 C.ar    1  UNL1        0.0027
     28 O         141.7392  141.7119  171.3944 O.co2   1  UNL1       -0.5446
     29 C         142.2857  142.6914  170.3985 C.2     1  UNL1        0.0729
     30 O         143.2338  143.7646  170.8448 O.co2   1  UNL1       -0.5446
@<TRIPOS>UNITY_ATOM_ATTR
28 1
charge -1
@<TRIPOS>BOND
     1    28    29   ar
     2    29    30   ar
     3    29    22    1
     4    22    23   ar
     5    23    24   ar
     6    24    25   ar
     7    25     1    1
     8     1     2   ar
     9     2     3   ar
    10     3     6    1
    11     6     7   ar
    12     7     8   ar
    13     8     9   ar
    14     9    10   ar
    15    10    11   ar
    16    11    12    1
    17     3     4   ar
    18     4     5   ar
    19     5    14    1
    20    14    15   ar
    21    15    16   ar
    22    16    17   ar
    23    17    18   ar
    24    18    19   ar
    25    19    20    1
    26    25    26   ar
    27    26    27   ar
    28    27    22   ar
    29     5     1   ar
    30    19    14   ar
    31    11     6   ar
    32    12    13    1
    33    20    21    1
@<TRIPOS>MOLECULE
*****
 30 33 0 0 0
SMALL
GASTEIGER

@<TRIPOS>ATOM
      1 N         140.6551  140.0520  163.6692 N.ar    1  UNL1       -0.2107
      2 N         141.1020  139.0870  162.6113 N.ar    1  UNL1       -0.1441
      3 C         140.6177  139.5953  161.2858 C.ar    1  UNL1        0.1864
      4 N         139.8715  140.8745  161.5244 N.ar    1  UNL1       -0.2059
      5 C         139.8946  141.1567  162.9974 C.ar    1  UNL1        0.1683
      6 C         140.8404  138.9396  159.9552 C.ar    1  UNL1        0.0712
      7 C         142.1899  138.3833  159.6098 C.ar    1  UNL1        0.0061
      8 C         142.4127  137.7275  158.2793 C.ar    1  UNL1        0.0003
      9 C         141.2860  137.6281  157.2942 C.ar    1  UNL1        0.0031
     10 C         139.9365  138.1844  157.6395 C.ar    1  UNL1        0.0367
     11 C         139.7137  138.8401  158.9700 C.ar    1  UNL1        0.1366
     12 O         138.3641  139.3964  159.3154 O.3     1  UNL1       -0.5054
     13 H         137.6603  139.3343  158.7000 H       1  UNL1        0.2922
     14 C         139.2674  142.3365  163.6790 C.ar    1  UNL1        0.0695
     15 C         140.1336  143.3821  164.3169 C.ar    1  UNL1        0.0061
     16 C         139.5063  144.5619  164.9985 C.ar    1  UNL1        0.0003
     17 C         138.0130  144.6963  165.0423 C.ar    1  UNL1        0.0031
     18 C         137.1469  143.6508  164.4044 C.ar    1  UNL1        0.0367
     19 C         137.7742  142.4710  163.7228 C.ar    1  UNL1        0.1365
     20 O         136.9079  141.4255  163.0850 O.3     1  UNL1       -0.5054
     21 H         135.9751  141.5095  163.1123 H       1  UNL1        0.2922
     22 C         141.4556  139.6954  168.0831 C.ar    1  UNL1        0.0141
     23 C         142.5916  139.6213  167.1064 C.ar    1  UNL1        0.0027
     24 C         142.3248  139.7401  165.6351 C.ar    1  UNL1        0.0192
     25 C         140.9219  139.9331  165.1405 C.ar    1  UNL1        0.0845
     26 C         139.7859  140.0073  166.1171 C.ar    1  UNL1        0.0192
     27 C         140.0527  139.8885  167.5884 C.ar    1  UNL1        0.0027
     28 O         143.1335  139.5742  170.0629 O.co2   1  UNL1       -0.5446
     29 C         141.7224  139.5766  169.5543 C.2     1  UNL1        0.0729
     30 O         140.5781  139.4601  170.5171 O.co2   1  UNL1       -0.5446
@<TRIPOS>UNITY_ATOM_ATTR
28 1
charge -1
@<TRIPOS>BOND
     1    28    29   ar
     2    29    30   ar
     3    29    22    1
     4    22    23   ar
     5    23    24   ar
     6    24    25   ar
     7    25     1    1
     8     1     2   ar
     9     2     3   ar
    10     3     6    1
    11     6     7   ar
    12     7     8   ar
    13     8     9   ar
    14     9    10   ar
    15    10    11   ar
    16    11    12    1
    17     3     4   ar
    18     4     5   ar
    19     5    14    1
    20    14    15   ar
    21    15    16   ar
    22    16    17   ar
    23    17    18   ar
    24    18    19   ar
    25    19    20    1
    26    25    26   ar
    27    26    27   ar
    28    27    22   ar
    29     5     1   ar
    30    19    14   ar
    31    11     6   ar
    32    12    13    1
    33    20    21    1
@<TRIPOS>MOLECULE
*****
 30 33 0 0 0
SMALL
GASTEIGER

@<TRIPOS>ATOM
      1 N         141.2137  142.3992  164.3240 N.ar    1  UNL1       -0.2107
      2 N         141.5921  143.4457  163.3182 N.ar    1  UNL1       -0.1441
      3 C         141.1334  142.9789  161.9685 C.ar    1  UNL1        0.1864
      4 N         140.4715  141.6439  162.1401 N.ar    1  UNL1       -0.2059
      5 C         140.5211  141.2856  163.5959 C.ar    1  UNL1        0.1683
      6 C         141.3063  143.7175  160.6745 C.ar    1  UNL1        0.0712
      7 C         140.3782  144.8422  160.3231 C.ar    1  UNL1        0.0061
      8 C         140.5511  145.5808  159.0290 C.ar    1  UNL1        0.0003
      9 C         141.6521  145.1946  158.0864 C.ar    1  UNL1        0.0031
     10 C         142.5802  144.0699  158.4378 C.ar    1  UNL1        0.0367
     11 C         142.4074  143.3313  159.7318 C.ar    1  UNL1        0.1366
     12 O         143.3355  142.2065  160.0832 O.3     1  UNL1       -0.5054
     13 H         144.0233  141.9653  159.4943 H       1  UNL1        0.2922
     14 C         139.9741  140.0335  164.2148 C.ar    1  UNL1        0.0695
     15 C         140.7742  138.7653  164.1740 C.ar    1  UNL1        0.0061
     16 C         140.2272  137.5132  164.7930 C.ar    1  UNL1        0.0003
     17 C         138.8802  137.5293  165.4527 C.ar    1  UNL1        0.0031
     18 C         138.0802  138.7974  165.4935 C.ar    1  UNL1        0.0367
     19 C         138.6271  140.0495  164.8745 C.ar    1  UNL1        0.1365
     20 O         137.8270  141.3177  164.9154 O.3     1  UNL1       -0.5054
     21 H         136.9855  141.3277  165.3275 H       1  UNL1        0.2922
     22 C         142.0154  142.5705  168.7487 C.ar    1  UNL1        0.0141
     23 C         143.1095  142.1723  167.8031 C.ar    1  UNL1        0.0027
     24 C         142.8423  142.1153  166.3282 C.ar    1  UNL1        0.0192
     25 C         141.4809  142.4563  165.7989 C.ar    1  UNL1        0.0845
     26 C         140.3867  142.8544  166.7445 C.ar    1  UNL1        0.0192
     27 C         140.6539  142.9115  168.2194 C.ar    1  UNL1        0.0027
     28 O         142.9485  143.8325  170.8191 O.co2   1  UNL1       -0.5446
     29 C         142.2826  142.6275  170.2236 C.2     1  UNL1        0.0729
     30 O         141.8839  141.4797  171.1030 O.co2   1  UNL1       -0.5446
@<TRIPOS>UNITY_ATOM_ATTR
28 1
charge -1
@<TRIPOS>BOND
     1    28    29   ar
     2    29    30   ar
     3    29    22    1
     4    22    23   ar
     5    23    24   ar
     6    24    25   ar
     7    25     1    1
     8     1     2   ar
     9     2     3   ar
    10     3     6    1
    11     6     7   ar
    12     7     8   ar
    13     8     9   ar
    14     9    10   ar
    15    10    11   ar
    16    11    12    1
    17     3     4   ar
    18     4     5   ar
    19     5    14    1
    20    14    15   ar
    21    15    16   ar
    22    16    17   ar
    23    17    18   ar
    24    18    19   ar
    25    19    20    1
    26    25    26   ar
    27    26    27   ar
    28    27    22   ar
    29     5     1   ar
    30    19    14   ar
    31    11     6   ar
    32    12    13    1
    33    20    21    1
@<TRIPOS>MOLECULE
*****
 30 33 0 0 0
SMALL
GASTEIGER

@<TRIPOS>ATOM
      1 N         140.5709  142.1534  164.5104 N.ar    1  UNL1       -0.2107
      2 N         140.9288  142.6441  165.8819 N.ar    1  UNL1       -0.1441
      3 C         140.6692  141.5320  166.8545 C.ar    1  UNL1        0.1864
      4 N         140.1510  140.3540  166.0841 N.ar    1  UNL1       -0.2059
      5 C         140.0903  140.7380  164.6353 C.ar    1  UNL1        0.1683
      6 C         140.8893  141.5882  168.3372 C.ar    1  UNL1        0.0712
      7 C         141.8654  142.5703  168.9139 C.ar    1  UNL1        0.0061
      8 C         142.0855  142.6265  170.3966 C.ar    1  UNL1        0.0003
      9 C         141.3295  141.7005  171.3026 C.ar    1  UNL1        0.0031
     10 C         140.3534  140.7184  170.7259 C.ar    1  UNL1        0.0367
     11 C         140.1332  140.6622  169.2433 C.ar    1  UNL1        0.1366
     12 O         139.1571  139.6800  168.6667 O.3     1  UNL1       -0.5054
     13 H         138.6849  139.1016  169.2326 H       1  UNL1        0.2922
     14 C         139.6297  139.8606  163.5092 C.ar    1  UNL1        0.0695
     15 C         140.5764  138.8746  162.8912 C.ar    1  UNL1        0.0061
     16 C         140.1158  137.9972  161.7651 C.ar    1  UNL1        0.0003
     17 C         138.7087  138.1058  161.2570 C.ar    1  UNL1        0.0031
     18 C         137.7621  139.0918  161.8749 C.ar    1  UNL1        0.0367
     19 C         138.2227  139.9692  163.0010 C.ar    1  UNL1        0.1365
     20 O         137.2760  140.9551  163.6189 O.3     1  UNL1       -0.5054
     21 H         136.3970  141.0229  163.3015 H       1  UNL1        0.2922
     22 C         140.8844  144.5130  160.6915 C.ar    1  UNL1        0.0141
     23 C         139.7397  144.7541  161.6303 C.ar    1  UNL1        0.0027
     24 C         139.6352  143.9676  162.9032 C.ar    1  UNL1        0.0192
     25 C         140.6754  142.9399  163.2374 C.ar    1  UNL1        0.0845
     26 C         141.8202  142.6989  162.2987 C.ar    1  UNL1        0.0192
     27 C         141.9247  143.4854  161.0257 C.ar    1  UNL1        0.0027
     28 O         139.7706  145.9566  158.8407 O.co2   1  UNL1       -0.5446
     29 C         140.9889  145.2996  159.4186 C.2     1  UNL1        0.0729
     30 O         142.3118  145.4292  158.7235 O.co2   1  UNL1       -0.5446
@<TRIPOS>UNITY_ATOM_ATTR
28 1
charge -1
@<TRIPOS>BOND
     1    28    29   ar
     2    29    30   ar
     3    29    22    1
     4    22    23   ar
     5    23    24   ar
     6    24    25   ar
     7    25     1    1
     8     1     2   ar
     9     2     3   ar
    10     3     6    1
    11     6     7   ar
    12     7     8   ar
    13     8     9   ar
    14     9    10   ar
    15    10    11   ar
    16    11    12    1
    17     3     4   ar
    18     4     5   ar
    19     5    14    1
    20    14    15   ar
    21    15    16   ar
    22    16    17   ar
    23    17    18   ar
    24    18    19   ar
    25    19    20    1
    26    25    26   ar
    27    26    27   ar
    28    27    22   ar
    29     5     1   ar
    30    19    14   ar
    31    11     6   ar
    32    12    13    1
    33    20    21    1
@<TRIPOS>MOLECULE
*****
 30 33 0 0 0
SMALL
GASTEIGER

@<TRIPOS>ATOM
      1 N         140.6555  138.7941  161.5633 N.ar    1  UNL1       -0.2107
      2 N         139.9700  138.4342  160.2785 N.ar    1  UNL1       -0.1441
      3 C         140.9662  138.5761  159.1660 C.ar    1  UNL1        0.1864
      4 N         142.2674  139.0236  159.7633 N.ar    1  UNL1       -0.2059
      5 C         142.0753  139.1584  161.2448 C.ar    1  UNL1        0.1683
      6 C         140.7068  138.3160  157.7117 C.ar    1  UNL1        0.0712
      7 C         141.6893  137.5196  156.9053 C.ar    1  UNL1        0.0061
      8 C         141.4299  137.2595  155.4510 C.ar    1  UNL1        0.0003
      9 C         140.1880  137.7959  154.8031 C.ar    1  UNL1        0.0031
     10 C         139.2054  138.5923  155.6095 C.ar    1  UNL1        0.0367
     11 C         139.4648  138.8524  157.0638 C.ar    1  UNL1        0.1366
     12 O         138.4822  139.6488  157.8702 O.3     1  UNL1       -0.5054
     13 H         137.7064  139.9838  157.4654 H       1  UNL1        0.2922
     14 C         143.1198  139.5829  162.2342 C.ar    1  UNL1        0.0695
     15 C         143.2680  138.8445  163.5316 C.ar    1  UNL1        0.0061
     16 C         144.3125  139.2690  164.5210 C.ar    1  UNL1        0.0003
     17 C         145.2087  140.4318  164.2132 C.ar    1  UNL1        0.0031
     18 C         145.0604  141.1701  162.9159 C.ar    1  UNL1        0.0367
     19 C         144.0159  140.7456  161.9265 C.ar    1  UNL1        0.1365
     20 O         143.8677  141.4840  160.6292 O.3     1  UNL1       -0.5054
     21 H         144.4276  142.2103  160.4369 H       1  UNL1        0.2922
     22 C         138.7814  138.7829  165.6544 C.ar    1  UNL1        0.0141
     23 C         139.0324  140.0821  164.9480 C.ar    1  UNL1        0.0027
     24 C         139.6571  140.0858  163.5843 C.ar    1  UNL1        0.0192
     25 C         140.0308  138.7904  162.9270 C.ar    1  UNL1        0.0845
     26 C         139.7798  137.4912  163.6334 C.ar    1  UNL1        0.0192
     27 C         139.1551  137.4875  164.9971 C.ar    1  UNL1        0.0027
     28 O         136.8859  138.0196  167.2589 O.co2   1  UNL1       -0.5446
     29 C         138.1567  138.7792  167.0182 C.2     1  UNL1        0.0729
     30 O         138.8028  139.5351  168.1411 O.co2   1  UNL1       -0.5446
@<TRIPOS>UNITY_ATOM_ATTR
28 1
charge -1
@<TRIPOS>BOND
     1    28    29   ar
     2    29    30   ar
     3    29    22    1
     4    22    23   ar
     5    23    24   ar
     6    24    25   ar
     7    25     1    1
     8     1     2   ar
     9     2     3   ar
    10     3     6    1
    11     6     7   ar
    12     7     8   ar
    13     8     9   ar
    14     9    10   ar
    15    10    11   ar
    16    11    12    1
    17     3     4   ar
    18     4     5   ar
    19     5    14    1
    20    14    15   ar
    21    15    16   ar
    22    16    17   ar
    23    17    18   ar
    24    18    19   ar
    25    19    20    1
    26    25    26   ar
    27    26    27   ar
    28    27    22   ar
    29     5     1   ar
    30    19    14   ar
    31    11     6   ar
    32    12    13    1
    33    20    21    1
@<TRIPOS>MOLECULE
*****
 30 33 0 0 0
SMALL
GASTEIGER

@<TRIPOS>ATOM
      1 N         141.7321  138.8530  161.1854 N.ar    1  UNL1       -0.2107
      2 N         141.2225  138.2792  159.8966 N.ar    1  UNL1       -0.1441
      3 C         142.2892  138.4552  158.8568 C.ar    1  UNL1        0.1864
      4 N         143.4582  139.1379  159.5030 N.ar    1  UNL1       -0.2059
      5 C         143.1139  139.3837  160.9421 C.ar    1  UNL1        0.1683
      6 C         142.2022  138.0242  157.4227 C.ar    1  UNL1        0.0712
      7 C         141.1036  137.1030  156.9818 C.ar    1  UNL1        0.0061
      8 C         141.0166  136.6721  155.5477 C.ar    1  UNL1        0.0003
      9 C         142.0282  137.1623  154.5546 C.ar    1  UNL1        0.0031
     10 C         143.1268  138.0835  154.9955 C.ar    1  UNL1        0.0367
     11 C         143.2138  138.5145  156.4296 C.ar    1  UNL1        0.1366
     12 O         144.3124  139.4357  156.8705 O.3     1  UNL1       -0.5054
     13 H         144.9443  139.7419  156.2501 H       1  UNL1        0.2922
     14 C         143.9964  140.0443  161.9593 C.ar    1  UNL1        0.0695
     15 C         144.3247  139.3362  163.2404 C.ar    1  UNL1        0.0061
     16 C         145.2072  139.9968  164.2576 C.ar    1  UNL1        0.0003
     17 C         145.7615  141.3655  163.9939 C.ar    1  UNL1        0.0031
     18 C         145.4332  142.0735  162.7129 C.ar    1  UNL1        0.0367
     19 C         144.5507  141.4129  161.6957 C.ar    1  UNL1        0.1365
     20 O         144.2224  142.1211  160.4147 O.3     1  UNL1       -0.5054
     21 H         144.5687  142.9761  160.2500 H       1  UNL1        0.2922
     22 C         139.5067  138.9632  165.0950 C.ar    1  UNL1        0.0141
     23 C         140.2910  137.7431  164.7126 C.ar    1  UNL1        0.0027
     24 C         141.0328  137.7064  163.4094 C.ar    1  UNL1        0.0192
     25 C         140.9903  138.8898  162.4886 C.ar    1  UNL1        0.0845
     26 C         140.2060  140.1098  162.8711 C.ar    1  UNL1        0.0192
     27 C         139.4642  140.1465  164.1743 C.ar    1  UNL1        0.0027
     28 O         137.4288  138.3292  166.5199 O.co2   1  UNL1       -0.5446
     29 C         138.7649  138.9999  166.3983 C.2     1  UNL1        0.0729
     30 O         139.3592  139.7073  167.5799 O.co2   1  UNL1       -0.5446
@<TRIPOS>UNITY_ATOM_ATTR
28 1
charge -1
@<TRIPOS>BOND
     1    28    29   ar
     2    29    30   ar
     3    29    22    1
     4    22    23   ar
     5    23    24   ar
     6    24    25   ar
     7    25     1    1
     8     1     2   ar
     9     2     3   ar
    10     3     6    1
    11     6     7   ar
    12     7     8   ar
    13     8     9   ar
    14     9    10   ar
    15    10    11   ar
    16    11    12    1
    17     3     4   ar
    18     4     5   ar
    19     5    14    1
    20    14    15   ar
    21    15    16   ar
    22    16    17   ar
    23    17    18   ar
    24    18    19   ar
    25    19    20    1
    26    25    26   ar
    27    26    27   ar
    28    27    22   ar
    29     5     1   ar
    30    19    14   ar
    31    11     6   ar
    32    12    13    1
    33    20    21    1
@<TRIPOS>MOLECULE
*****
 30 33 0 0 0
SMALL
GASTEIGER

@<TRIPOS>ATOM
      1 N         141.0107  141.7913  164.7968 N.ar    1  UNL1       -0.2107
      2 N         140.3382  142.7692  163.8796 N.ar    1  UNL1       -0.1441
      3 C         141.1365  142.8402  162.6117 C.ar    1  UNL1        0.1864
      4 N         142.3026  141.9061  162.7453 N.ar    1  UNL1       -0.2059
      5 C         142.2248  141.2579  164.0958 C.ar    1  UNL1        0.1683
      6 C         140.8238  143.6951  161.4195 C.ar    1  UNL1        0.0712
      7 C         140.9297  143.1222  160.0373 C.ar    1  UNL1        0.0061
      8 C         140.6169  143.9771  158.8451 C.ar    1  UNL1        0.0003
      9 C         140.1983  145.4048  159.0352 C.ar    1  UNL1        0.0031
     10 C         140.0924  145.9777  160.4174 C.ar    1  UNL1        0.0367
     11 C         140.4051  145.1229  161.6095 C.ar    1  UNL1        0.1366
     12 O         140.2992  145.6958  162.9918 O.3     1  UNL1       -0.5054
     13 H         140.0377  146.5877  163.1105 H       1  UNL1        0.2922
     14 C         143.1915  140.2527  164.6482 C.ar    1  UNL1        0.0695
     15 C         142.7326  139.2523  165.6675 C.ar    1  UNL1        0.0061
     16 C         143.6993  138.2471  166.2199 C.ar    1  UNL1        0.0003
     17 C         145.1248  138.2423  165.7532 C.ar    1  UNL1        0.0031
     18 C         145.5837  139.2427  164.7340 C.ar    1  UNL1        0.0367
     19 C         144.6170  140.2479  164.1816 C.ar    1  UNL1        0.1365
     20 O         145.0760  141.2482  163.1624 O.3     1  UNL1       -0.5054
     21 H         145.9665  141.2452  162.8709 H       1  UNL1        0.2922
     22 C         139.6289  140.6570  168.9265 C.ar    1  UNL1        0.0141
     23 C         139.1703  139.8649  167.7382 C.ar    1  UNL1        0.0027
     24 C         139.6309  140.2429  166.3616 C.ar    1  UNL1        0.0192
     25 C         140.5501  141.4132  166.1734 C.ar    1  UNL1        0.0845
     26 C         141.0087  142.2054  167.3617 C.ar    1  UNL1        0.0192
     27 C         140.5481  141.8273  168.7382 C.ar    1  UNL1        0.0027
     28 O         137.7849  139.7368  170.5085 O.co2   1  UNL1       -0.5446
     29 C         139.1683  140.2789  170.3030 C.2     1  UNL1        0.0729
     30 O         140.0911  140.4429  171.4741 O.co2   1  UNL1       -0.5446
@<TRIPOS>UNITY_ATOM_ATTR
28 1
charge -1
@<TRIPOS>BOND
     1    28    29   ar
     2    29    30   ar
     3    29    22    1
     4    22    23   ar
     5    23    24   ar
     6    24    25   ar
     7    25     1    1
     8     1     2   ar
     9     2     3   ar
    10     3     6    1
    11     6     7   ar
    12     7     8   ar
    13     8     9   ar
    14     9    10   ar
    15    10    11   ar
    16    11    12    1
    17     3     4   ar
    18     4     5   ar
    19     5    14    1
    20    14    15   ar
    21    15    16   ar
    22    16    17   ar
    23    17    18   ar
    24    18    19   ar
    25    19    20    1
    26    25    26   ar
    27    26    27   ar
    28    27    22   ar
    29     5     1   ar
    30    19    14   ar
    31    11     6   ar
    32    12    13    1
    33    20    21    1
@<TRIPOS>MOLECULE
*****
 30 33 0 0 0
SMALL
GASTEIGER

@<TRIPOS>ATOM
      1 N         140.4167  139.2855  162.1176 N.ar    1  UNL1       -0.2107
      2 N         140.0816  138.5623  160.8469 N.ar    1  UNL1       -0.1441
      3 C         141.0139  139.0484  159.7771 C.ar    1  UNL1        0.1864
      4 N         141.9252  140.0721  160.3866 N.ar    1  UNL1       -0.2059
      5 C         141.5561  140.2186  161.8331 C.ar    1  UNL1        0.1683
      6 C         141.0317  138.5911  158.3486 C.ar    1  UNL1        0.0712
      7 C         139.7512  138.2083  157.6677 C.ar    1  UNL1        0.0061
      8 C         139.7690  137.7510  156.2392 C.ar    1  UNL1        0.0003
      9 C         141.0672  137.6766  155.4917 C.ar    1  UNL1        0.0031
     10 C         142.3477  138.0594  156.1726 C.ar    1  UNL1        0.0367
     11 C         142.3300  138.5167  157.6011 C.ar    1  UNL1        0.1366
     12 O         143.6105  138.8995  158.2820 O.3     1  UNL1       -0.5054
     13 H         144.4215  138.8530  157.8150 H       1  UNL1        0.2922
     14 C         142.2114  141.1371  162.8215 C.ar    1  UNL1        0.0695
     15 C         141.8482  142.5923  162.8484 C.ar    1  UNL1        0.0061
     16 C         142.5035  143.5107  163.8368 C.ar    1  UNL1        0.0003
     17 C         143.5220  142.9741  164.7984 C.ar    1  UNL1        0.0031
     18 C         143.8852  141.5190  164.7715 C.ar    1  UNL1        0.0367
     19 C         143.2299  140.6005  163.7831 C.ar    1  UNL1        0.1365
     20 O         143.5932  139.1454  163.7563 O.3     1  UNL1       -0.5054
     21 H         144.2294  138.8102  164.3570 H       1  UNL1        0.2922
     22 C         138.3642  138.7498  166.0863 C.ar    1  UNL1        0.0141
     23 C         138.4759  140.1164  165.4781 C.ar    1  UNL1        0.0027
     24 C         139.1601  140.2949  164.1552 C.ar    1  UNL1        0.0192
     25 C         139.7325  139.1069  163.4405 C.ar    1  UNL1        0.0845
     26 C         139.6208  137.7404  164.0487 C.ar    1  UNL1        0.0192
     27 C         138.9367  137.5618  165.3716 C.ar    1  UNL1        0.0027
     28 O         138.1243  139.3716  168.5974 O.co2   1  UNL1       -0.5446
     29 C         137.6800  138.5712  167.4092 C.2     1  UNL1        0.0729
     30 O         136.5516  137.5923  167.5438 O.co2   1  UNL1       -0.5446
@<TRIPOS>UNITY_ATOM_ATTR
28 1
charge -1
@<TRIPOS>BOND
     1    28    29   ar
     2    29    30   ar
     3    29    22    1
     4    22    23   ar
     5    23    24   ar
     6    24    25   ar
     7    25     1    1
     8     1     2   ar
     9     2     3   ar
    10     3     6    1
    11     6     7   ar
    12     7     8   ar
    13     8     9   ar
    14     9    10   ar
    15    10    11   ar
    16    11    12    1
    17     3     4   ar
    18     4     5   ar
    19     5    14    1
    20    14    15   ar
    21    15    16   ar
    22    16    17   ar
    23    17    18   ar
    24    18    19   ar
    25    19    20    1
    26    25    26   ar
    27    26    27   ar
    28    27    22   ar
    29     5     1   ar
    30    19    14   ar
    31    11     6   ar
    32    12    13    1
    33    20    21    1
@<TRIPOS>MOLECULE
*****
 30 33 0 0 0
SMALL
GASTEIGER

@<TRIPOS>ATOM
      1 N         140.8923  142.2199  164.3125 N.ar    1  UNL1       -0.2107
      2 N         141.2870  142.7645  165.6532 N.ar    1  UNL1       -0.1441
      3 C         141.0113  141.7083  166.6820 C.ar    1  UNL1        0.1864
      4 N         140.4461  140.5109  165.9771 N.ar    1  UNL1       -0.2059
      5 C         140.3727  140.8271  164.5126 C.ar    1  UNL1        0.1683
      6 C         141.2574  141.8284  168.1568 C.ar    1  UNL1        0.0712
      7 C         140.1861  141.4354  169.1304 C.ar    1  UNL1        0.0061
      8 C         140.4323  141.5555  170.6052 C.ar    1  UNL1        0.0003
      9 C         141.7496  142.0686  171.1063 C.ar    1  UNL1        0.0031
     10 C         142.8209  142.4616  170.1327 C.ar    1  UNL1        0.0367
     11 C         142.5748  142.3415  168.6580 C.ar    1  UNL1        0.1366
     12 O         143.6461  142.7345  167.6844 O.3     1  UNL1       -0.5054
     13 H         144.4690  143.0550  167.9975 H       1  UNL1        0.2922
     14 C         139.8680  139.9113  163.4372 C.ar    1  UNL1        0.0695
     15 C         138.4035  139.8674  163.1156 C.ar    1  UNL1        0.0061
     16 C         137.8989  138.9516  162.0401 C.ar    1  UNL1        0.0003
     17 C         138.8587  138.0796  161.2862 C.ar    1  UNL1        0.0031
     18 C         140.3232  138.1235  161.6078 C.ar    1  UNL1        0.0367
     19 C         140.8278  139.0394  162.6832 C.ar    1  UNL1        0.1365
     20 O         142.2923  139.0832  163.0047 O.3     1  UNL1       -0.5054
     21 H         142.8919  138.5385  162.5337 H       1  UNL1        0.2922
     22 C         141.2114  144.3844  160.3801 C.ar    1  UNL1        0.0141
     23 C         139.9030  144.3490  161.1128 C.ar    1  UNL1        0.0027
     24 C         139.7966  143.6275  162.4236 C.ar    1  UNL1        0.0192
     25 C         140.9987  142.9414  163.0017 C.ar    1  UNL1        0.0845
     26 C         142.3071  142.9768  162.2690 C.ar    1  UNL1        0.0192
     27 C         142.4134  143.6983  160.9583 C.ar    1  UNL1        0.0027
     28 O         142.5986  145.0607  158.2901 O.co2   1  UNL1       -0.5446
     29 C         141.3177  145.1059  159.0694 C.2     1  UNL1        0.0729
     30 O         140.1432  145.8726  158.5378 O.co2   1  UNL1       -0.5446
@<TRIPOS>UNITY_ATOM_ATTR
28 1
charge -1
@<TRIPOS>BOND
     1    28    29   ar
     2    29    30   ar
     3    29    22    1
     4    22    23   ar
     5    23    24   ar
     6    24    25   ar
     7    25     1    1
     8     1     2   ar
     9     2     3   ar
    10     3     6    1
    11     6     7   ar
    12     7     8   ar
    13     8     9   ar
    14     9    10   ar
    15    10    11   ar
    16    11    12    1
    17     3     4   ar
    18     4     5   ar
    19     5    14    1
    20    14    15   ar
    21    15    16   ar
    22    16    17   ar
    23    17    18   ar
    24    18    19   ar
    25    19    20    1
    26    25    26   ar
    27    26    27   ar
    28    27    22   ar
    29     5     1   ar
    30    19    14   ar
    31    11     6   ar
    32    12    13    1
    33    20    21    1
