@<TRIPOS>MOLECULE
*****
 39 43 0 0 0
SMALL
GASTEIGER

@<TRIPOS>ATOM
      1 C         142.9618  139.6514  164.2070 C.ar    1  UNL1        0.0016
      2 C         143.6847  138.7185  165.1328 C.ar    1  UNL1        0.0016
      3 C         143.3575  138.7119  166.5966 C.ar    1  UNL1        0.0192
      4 C         142.3075  139.6382  167.1347 C.ar    1  UNL1        0.0845
      5 N         141.9803  139.6315  168.5986 N.ar    1  UNL1       -0.2240
      6 C         140.9303  140.5578  169.1367 C.ar    1  UNL1        0.1988
      7 N         140.2075  141.4907  168.2108 N.ar    1  UNL1       -0.2240
      8 C         140.5346  141.4974  166.7469 C.ar    1  UNL1        0.0844
      9 C         141.5846  140.5711  166.2089 C.ar    1  UNL1        0.0354
     10 C         141.9118  140.5777  164.7451 C.ar    1  UNL1        0.0030
     11 C         143.9432  139.6715  159.8153 C.ar    1  UNL1        0.2288
     12 N         143.9687  138.3834  160.5836 N.ar    1  UNL1       -0.2102
     13 C         143.6416  138.3768  162.0475 C.ar    1  UNL1        0.1020
     14 C         143.2890  139.6581  162.7431 C.ar    1  UNL1        0.0193
     15 C         143.2635  140.9461  161.9748 C.ar    1  UNL1        0.0101
     16 C         143.5906  140.9528  160.5109 C.ar    1  UNL1        0.1244
     17 C         143.5652  142.2409  159.7426 C.3     1  UNL1        0.4229
     18 F         143.5397  143.5289  158.9743 F       1  UNL1       -0.1657
     19 F         142.1879  141.9166  159.2447 F       1  UNL1       -0.1657
     20 F         144.9425  142.5651  160.2405 F       1  UNL1       -0.1657
     21 C         143.2110  139.3403  157.3447 C.3     1  UNL1        0.2542
     22 O         144.2704  139.6782  158.3515 O.3     1  UNL1       -0.4562
     23 C         139.8118  142.4303  165.8211 C.ar    1  UNL1        0.0179
     24 C         139.5016  143.8309  166.2595 C.ar    1  UNL1        0.0015
     25 C         138.7787  144.7638  165.3336 C.ar    1  UNL1        0.0002
     26 C         138.3660  144.2961  163.9695 C.ar    1  UNL1        0.0045
     27 C         138.6762  142.8955  163.5311 C.ar    1  UNL1        0.0536
     28 C         139.3990  141.9626  164.4569 C.ar    1  UNL1        0.0060
     29 C         138.2635  142.4278  162.1669 C.2     1  UNL1        0.2491
     30 O         137.2214  141.3583  162.0242 O.2     1  UNL1       -0.2699
     31 N         138.8928  143.0296  160.9456 N.am    1  UNL1       -0.2726
     32 C         139.9348  144.0990  161.0883 C.3     1  UNL1        0.1152
     33 C         140.5641  144.7008  159.8669 C.3     1  UNL1        0.1149
     34 N         140.1514  144.2331  158.5027 N.am    1  UNL1       -0.2760
     35 C         140.7807  144.8349  157.2813 C.2     1  UNL1        0.2262
     36 C         141.8228  145.9043  157.4241 C.3     1  UNL1        0.0948
     37 O         140.3680  144.3672  155.9172 O.2     1  UNL1       -0.2749
     38 C         139.1093  143.1637  158.3600 C.3     1  UNL1        0.1149
     39 C         138.4800  142.5619  159.5814 C.3     1  UNL1        0.1152
@<TRIPOS>BOND
     1    21    22    1
     2    22    11    1
     3    11    12   ar
     4    12    13   ar
     5    13    14   ar
     6    14     1    1
     7     1     2   ar
     8     2     3   ar
     9     3     4   ar
    10     4     5   ar
    11     5     6   ar
    12     6     7   ar
    13     7     8   ar
    14     8    23    1
    15    23    24   ar
    16    24    25   ar
    17    25    26   ar
    18    26    27   ar
    19    27    29    1
    20    29    30    2
    21    29    31   am
    22    31    32    1
    23    32    33    1
    24    33    34    1
    25    34    35   am
    26    35    36    1
    27    35    37    2
    28    34    38    1
    29    38    39    1
    30    27    28   ar
    31     8     9   ar
    32     9    10   ar
    33    14    15   ar
    34    15    16   ar
    35    16    17    1
    36    17    18    1
    37    17    19    1
    38    17    20    1
    39    16    11   ar
    40    10     1   ar
    41     9     4   ar
    42    28    23   ar
    43    39    31    1
@<TRIPOS>MOLECULE
*****
 39 43 0 0 0
SMALL
GASTEIGER

@<TRIPOS>ATOM
      1 C         139.3356  139.2774  164.5055 C.ar    1  UNL1        0.0016
      2 C         138.4145  138.4880  165.3877 C.ar    1  UNL1        0.0016
      3 C         138.3823  138.7505  166.8642 C.ar    1  UNL1        0.0192
      4 C         139.2713  139.8024  167.4585 C.ar    1  UNL1        0.0845
      5 N         139.2390  140.0648  168.9351 N.ar    1  UNL1       -0.2240
      6 C         140.1280  141.1167  169.5294 C.ar    1  UNL1        0.1988
      7 N         141.0492  141.9061  168.6472 N.ar    1  UNL1       -0.2240
      8 C         141.0814  141.6437  167.1707 C.ar    1  UNL1        0.0844
      9 C         140.1924  140.5918  166.5764 C.ar    1  UNL1        0.0354
     10 C         140.2246  140.3293  165.0999 C.ar    1  UNL1        0.0030
     11 C         139.4323  138.4901  160.0759 C.ar    1  UNL1        0.2288
     12 N         138.1216  138.5151  160.8048 N.ar    1  UNL1       -0.2102
     13 C         138.0893  138.7776  162.2814 C.ar    1  UNL1        0.1020
     14 C         139.3678  139.0150  163.0290 C.ar    1  UNL1        0.0193
     15 C         140.6786  138.9900  162.3001 C.ar    1  UNL1        0.0101
     16 C         140.7109  138.7276  160.8236 C.ar    1  UNL1        0.1244
     17 C         142.0217  138.7026  160.0948 C.3     1  UNL1        0.4229
     18 F         143.3324  138.6776  159.3659 F       1  UNL1       -0.1657
     19 F         142.3093  137.3427  160.6587 F       1  UNL1       -0.1657
     20 F         141.7340  140.0625  159.5308 F       1  UNL1       -0.1657
     21 C         139.2768  139.3589  157.6324 C.3     1  UNL1        0.2542
     22 O         139.4646  138.2277  158.5994 O.3     1  UNL1       -0.4562
     23 C         142.0026  142.4331  166.2886 C.ar    1  UNL1        0.0179
     24 C         143.4431  142.6038  166.6702 C.ar    1  UNL1        0.0015
     25 C         144.3643  143.3933  165.7880 C.ar    1  UNL1        0.0002
     26 C         143.8449  144.0121  164.5242 C.ar    1  UNL1        0.0045
     27 C         142.4043  143.8414  164.1425 C.ar    1  UNL1        0.0536
     28 C         141.4832  143.0520  165.0247 C.ar    1  UNL1        0.0060
     29 C         141.8849  144.4603  162.8786 C.2     1  UNL1        0.2491
     30 O         140.8997  145.5893  162.9462 O.2     1  UNL1       -0.2699
     31 N         142.3508  143.9500  161.5473 N.am    1  UNL1       -0.2726
     32 C         143.3360  142.8210  161.4797 C.3     1  UNL1        0.1152
     33 C         143.8019  142.3108  160.1483 C.3     1  UNL1        0.1149
     34 N         143.2825  142.9296  158.8844 N.am    1  UNL1       -0.2760
     35 C         143.7483  142.4194  157.5530 C.2     1  UNL1        0.2262
     36 C         144.7335  141.2904  157.4854 C.3     1  UNL1        0.0948
     37 O         143.2289  143.0383  156.2892 O.2     1  UNL1       -0.2749
     38 C         142.2972  144.0587  158.9520 C.3     1  UNL1        0.1149
     39 C         141.8314  144.5689  160.2835 C.3     1  UNL1        0.1152
@<TRIPOS>BOND
     1    21    22    1
     2    22    11    1
     3    11    12   ar
     4    12    13   ar
     5    13    14   ar
     6    14     1    1
     7     1     2   ar
     8     2     3   ar
     9     3     4   ar
    10     4     5   ar
    11     5     6   ar
    12     6     7   ar
    13     7     8   ar
    14     8    23    1
    15    23    24   ar
    16    24    25   ar
    17    25    26   ar
    18    26    27   ar
    19    27    29    1
    20    29    30    2
    21    29    31   am
    22    31    32    1
    23    32    33    1
    24    33    34    1
    25    34    35   am
    26    35    36    1
    27    35    37    2
    28    34    38    1
    29    38    39    1
    30    27    28   ar
    31     8     9   ar
    32     9    10   ar
    33    14    15   ar
    34    15    16   ar
    35    16    17    1
    36    17    18    1
    37    17    19    1
    38    17    20    1
    39    16    11   ar
    40    10     1   ar
    41     9     4   ar
    42    28    23   ar
    43    39    31    1
@<TRIPOS>MOLECULE
*****
 39 43 0 0 0
SMALL
GASTEIGER

@<TRIPOS>ATOM
      1 C         139.6111  143.1694  164.0742 C.ar    1  UNL1        0.0016
      2 C         138.7808  144.4182  164.0429 C.ar    1  UNL1        0.0016
      3 C         138.8116  145.3093  162.8367 C.ar    1  UNL1        0.0192
      4 C         139.6729  144.9516  161.6618 C.ar    1  UNL1        0.0845
      5 N         139.7037  145.8427  160.4556 N.ar    1  UNL1       -0.2240
      6 C         140.5650  145.4850  159.2807 C.ar    1  UNL1        0.1988
      7 N         141.3953  144.2361  159.3121 N.ar    1  UNL1       -0.2240
      8 C         141.3644  143.3451  160.5183 C.ar    1  UNL1        0.0844
      9 C         140.5032  143.7028  161.6932 C.ar    1  UNL1        0.0354
     10 C         140.4723  142.8117  162.8994 C.ar    1  UNL1        0.0030
     11 C         139.5185  140.4960  167.6929 C.ar    1  UNL1        0.2288
     12 N         140.0347  141.8994  167.8103 N.ar    1  UNL1       -0.2102
     13 C         140.0656  142.7906  166.6041 C.ar    1  UNL1        0.1020
     14 C         139.5802  142.2783  165.2805 C.ar    1  UNL1        0.0193
     15 C         139.0639  140.8748  165.1631 C.ar    1  UNL1        0.0101
     16 C         139.0331  139.9837  166.3692 C.ar    1  UNL1        0.1244
     17 C         138.5168  138.5802  166.2518 C.3     1  UNL1        0.4229
     18 F         138.0005  137.1768  166.1344 F       1  UNL1       -0.1657
     19 F         137.2976  138.9630  167.0373 F       1  UNL1       -0.1657
     20 F         139.7360  138.1974  165.4663 F       1  UNL1       -0.1657
     21 C         139.5838  140.1988  170.2730 C.3     1  UNL1        0.2542
     22 O         139.4876  139.6048  168.8991 O.3     1  UNL1       -0.4562
     23 C         142.1947  142.0963  160.5496 C.ar    1  UNL1        0.0179
     24 C         143.1672  141.8142  159.4429 C.ar    1  UNL1        0.0015
     25 C         143.9975  140.5653  159.4743 C.ar    1  UNL1        0.0002
     26 C         143.8554  139.5986  160.6123 C.ar    1  UNL1        0.0045
     27 C         142.8830  139.8807  161.7190 C.ar    1  UNL1        0.0536
     28 C         142.0527  141.1295  161.6877 C.ar    1  UNL1        0.0060
     29 C         142.7409  138.9139  162.8571 C.2     1  UNL1        0.2491
     30 O         142.4967  137.4600  162.5801 O.2     1  UNL1       -0.2699
     31 N         142.8431  139.4009  164.2721 N.am    1  UNL1       -0.2726
     32 C         143.0873  140.8548  164.5492 C.3     1  UNL1        0.1152
     33 C         143.1894  141.3418  165.9642 C.3     1  UNL1        0.1149
     34 N         143.0474  140.3750  167.1023 N.am    1  UNL1       -0.2760
     35 C         143.1495  140.8620  168.5173 C.2     1  UNL1        0.2262
     36 C         143.3937  142.3159  168.7943 C.3     1  UNL1        0.0948
     37 O         143.0075  139.8953  169.6553 O.2     1  UNL1       -0.2749
     38 C         142.8032  138.9212  166.8253 C.3     1  UNL1        0.1149
     39 C         142.7010  138.4341  165.4101 C.3     1  UNL1        0.1152
@<TRIPOS>BOND
     1    21    22    1
     2    22    11    1
     3    11    12   ar
     4    12    13   ar
     5    13    14   ar
     6    14     1    1
     7     1     2   ar
     8     2     3   ar
     9     3     4   ar
    10     4     5   ar
    11     5     6   ar
    12     6     7   ar
    13     7     8   ar
    14     8    23    1
    15    23    24   ar
    16    24    25   ar
    17    25    26   ar
    18    26    27   ar
    19    27    29    1
    20    29    30    2
    21    29    31   am
    22    31    32    1
    23    32    33    1
    24    33    34    1
    25    34    35   am
    26    35    36    1
    27    35    37    2
    28    34    38    1
    29    38    39    1
    30    27    28   ar
    31     8     9   ar
    32     9    10   ar
    33    14    15   ar
    34    15    16   ar
    35    16    17    1
    36    17    18    1
    37    17    19    1
    38    17    20    1
    39    16    11   ar
    40    10     1   ar
    41     9     4   ar
    42    28    23   ar
    43    39    31    1
@<TRIPOS>MOLECULE
*****
 39 43 0 0 0
SMALL
GASTEIGER

@<TRIPOS>ATOM
      1 C         138.9852  139.8333  164.8671 C.ar    1  UNL1        0.0016
      2 C         138.0042  139.2047  165.8118 C.ar    1  UNL1        0.0016
      3 C         138.2931  139.1760  167.2834 C.ar    1  UNL1        0.0192
      4 C         139.5629  139.7758  167.8103 C.ar    1  UNL1        0.0845
      5 N         139.8518  139.7470  169.2820 N.ar    1  UNL1       -0.2240
      6 C         141.1216  140.3468  169.8090 C.ar    1  UNL1        0.1988
      7 N         142.1027  140.9755  168.8642 N.ar    1  UNL1       -0.2240
      8 C         141.8138  141.0042  167.3926 C.ar    1  UNL1        0.0844
      9 C         140.5439  140.4044  166.8657 C.ar    1  UNL1        0.0354
     10 C         140.2551  140.4331  165.3941 C.ar    1  UNL1        0.0030
     11 C         138.1188  139.9197  160.4521 C.ar    1  UNL1        0.2288
     12 N         137.8410  138.6782  161.2468 N.ar    1  UNL1       -0.2102
     13 C         138.1298  138.6494  162.7185 C.ar    1  UNL1        0.1020
     14 C         138.6964  139.8621  163.3954 C.ar    1  UNL1        0.0193
     15 C         138.9742  141.1036  162.6008 C.ar    1  UNL1        0.0101
     16 C         138.6854  141.1324  161.1292 C.ar    1  UNL1        0.1244
     17 C         138.9631  142.3739  160.3345 C.3     1  UNL1        0.4229
     18 F         139.2409  143.6155  159.5398 F       1  UNL1       -0.1657
     19 F         140.2452  141.7714  159.8413 F       1  UNL1       -0.1657
     20 F         137.6810  142.9765  160.8277 F       1  UNL1       -0.1657
     21 C         138.9021  139.5796  157.9985 C.3     1  UNL1        0.2542
     22 O         137.8300  139.9485  158.9805 O.3     1  UNL1       -0.4562
     23 C         142.7948  141.6328  166.4479 C.ar    1  UNL1        0.0179
     24 C         143.5888  142.8304  166.8784 C.ar    1  UNL1        0.0015
     25 C         144.5699  143.4590  165.9337 C.ar    1  UNL1        0.0002
     26 C         144.7568  142.8900  164.5585 C.ar    1  UNL1        0.0045
     27 C         143.9628  141.6924  164.1279 C.ar    1  UNL1        0.0536
     28 C         142.9818  141.0638  165.0726 C.ar    1  UNL1        0.0060
     29 C         144.1499  141.1234  162.7527 C.2     1  UNL1        0.2491
     30 O         144.7965  139.7813  162.5778 O.2     1  UNL1       -0.2699
     31 N         143.6903  141.8966  161.5523 N.am    1  UNL1       -0.2726
     32 C         143.0436  143.2387  161.7271 C.3     1  UNL1        0.1152
     33 C         142.5841  144.0118  160.5267 C.3     1  UNL1        0.1149
     34 N         142.7711  143.4428  159.1514 N.am    1  UNL1       -0.2760
     35 C         142.3115  144.2160  157.9510 C.2     1  UNL1        0.2262
     36 C         141.6649  145.5581  158.1258 C.3     1  UNL1        0.0948
     37 O         142.4985  143.6470  156.5758 O.2     1  UNL1       -0.2749
     38 C         143.4177  142.1007  158.9766 C.3     1  UNL1        0.1149
     39 C         143.8773  141.3276  160.1771 C.3     1  UNL1        0.1152
@<TRIPOS>BOND
     1    21    22    1
     2    22    11    1
     3    11    12   ar
     4    12    13   ar
     5    13    14   ar
     6    14     1    1
     7     1     2   ar
     8     2     3   ar
     9     3     4   ar
    10     4     5   ar
    11     5     6   ar
    12     6     7   ar
    13     7     8   ar
    14     8    23    1
    15    23    24   ar
    16    24    25   ar
    17    25    26   ar
    18    26    27   ar
    19    27    29    1
    20    29    30    2
    21    29    31   am
    22    31    32    1
    23    32    33    1
    24    33    34    1
    25    34    35   am
    26    35    36    1
    27    35    37    2
    28    34    38    1
    29    38    39    1
    30    27    28   ar
    31     8     9   ar
    32     9    10   ar
    33    14    15   ar
    34    15    16   ar
    35    16    17    1
    36    17    18    1
    37    17    19    1
    38    17    20    1
    39    16    11   ar
    40    10     1   ar
    41     9     4   ar
    42    28    23   ar
    43    39    31    1
@<TRIPOS>MOLECULE
*****
 39 43 0 0 0
SMALL
GASTEIGER

@<TRIPOS>ATOM
      1 C         139.9865  143.1012  165.3219 C.ar    1  UNL1        0.0016
      2 C         138.8967  144.1297  165.3867 C.ar    1  UNL1        0.0016
      3 C         138.6515  145.0373  164.2179 C.ar    1  UNL1        0.0192
      4 C         139.4961  144.9162  162.9842 C.ar    1  UNL1        0.0845
      5 N         139.2509  145.8238  161.8153 N.ar    1  UNL1       -0.2240
      6 C         140.0956  145.7028  160.5817 C.ar    1  UNL1        0.1988
      7 N         141.1855  144.6742  160.5169 N.ar    1  UNL1       -0.2240
      8 C         141.4306  143.7666  161.6858 C.ar    1  UNL1        0.0844
      9 C         140.5860  143.8877  162.9194 C.ar    1  UNL1        0.0354
     10 C         140.8312  142.9801  164.0882 C.ar    1  UNL1        0.0030
     11 C         140.7222  140.3784  168.8285 C.ar    1  UNL1        0.2288
     12 N         139.9849  139.8694  167.6255 N.ar    1  UNL1       -0.2102
     13 C         139.7396  140.7770  166.4566 C.ar    1  UNL1        0.1020
     14 C         140.2317  142.1936  166.4908 C.ar    1  UNL1        0.0193
     15 C         140.9690  142.7026  167.6938 C.ar    1  UNL1        0.0101
     16 C         141.2143  141.7951  168.8626 C.ar    1  UNL1        0.1244
     17 C         141.9516  142.3041  170.0656 C.3     1  UNL1        0.4229
     18 F         142.6889  142.8131  171.2687 F       1  UNL1       -0.1657
     19 F         140.6456  142.5608  170.7574 F       1  UNL1       -0.1657
     20 F         143.2575  142.0474  169.3739 F       1  UNL1       -0.1657
     21 C         142.3019  138.8068  170.1641 C.3     1  UNL1        0.2542
     22 O         140.9674  139.4709  169.9973 O.3     1  UNL1       -0.4562
     23 C         142.5205  142.7381  161.6209 C.ar    1  UNL1        0.0179
     24 C         143.9092  143.0876  162.0673 C.ar    1  UNL1        0.0015
     25 C         144.9991  142.0590  162.0025 C.ar    1  UNL1        0.0002
     26 C         144.7002  140.6808  161.4913 C.ar    1  UNL1        0.0045
     27 C         143.3115  140.3313  161.0449 C.ar    1  UNL1        0.0536
     28 C         142.2216  141.3598  161.1097 C.ar    1  UNL1        0.0060
     29 C         143.0126  138.9530  160.5337 C.2     1  UNL1        0.2491
     30 O         142.7232  137.8416  161.4986 O.2     1  UNL1       -0.2699
     31 N         143.0032  138.6863  159.0576 N.am    1  UNL1       -0.2726
     32 C         143.2926  139.7977  158.0928 C.3     1  UNL1        0.1152
     33 C         143.2831  139.5310  156.6167 C.3     1  UNL1        0.1149
     34 N         142.9843  138.1528  156.1055 N.am    1  UNL1       -0.2760
     35 C         142.9748  137.8860  154.6295 C.2     1  UNL1        0.2262
     36 C         143.2642  138.9975  153.6646 C.3     1  UNL1        0.0948
     37 O         142.6760  136.5079  154.1183 O.2     1  UNL1       -0.2749
     38 C         142.6949  137.0414  157.0704 C.3     1  UNL1        0.1149
     39 C         142.7043  137.3082  158.5465 C.3     1  UNL1        0.1152
@<TRIPOS>BOND
     1    21    22    1
     2    22    11    1
     3    11    12   ar
     4    12    13   ar
     5    13    14   ar
     6    14     1    1
     7     1     2   ar
     8     2     3   ar
     9     3     4   ar
    10     4     5   ar
    11     5     6   ar
    12     6     7   ar
    13     7     8   ar
    14     8    23    1
    15    23    24   ar
    16    24    25   ar
    17    25    26   ar
    18    26    27   ar
    19    27    29    1
    20    29    30    2
    21    29    31   am
    22    31    32    1
    23    32    33    1
    24    33    34    1
    25    34    35   am
    26    35    36    1
    27    35    37    2
    28    34    38    1
    29    38    39    1
    30    27    28   ar
    31     8     9   ar
    32     9    10   ar
    33    14    15   ar
    34    15    16   ar
    35    16    17    1
    36    17    18    1
    37    17    19    1
    38    17    20    1
    39    16    11   ar
    40    10     1   ar
    41     9     4   ar
    42    28    23   ar
    43    39    31    1
@<TRIPOS>MOLECULE
*****
 39 43 0 0 0
SMALL
GASTEIGER

@<TRIPOS>ATOM
      1 C         140.9639  138.7040  162.8434 C.ar    1  UNL1        0.0016
      2 C         140.2711  137.6143  163.6066 C.ar    1  UNL1        0.0016
      3 C         139.8038  137.8622  165.0102 C.ar    1  UNL1        0.0192
      4 C         140.0293  139.1997  165.6506 C.ar    1  UNL1        0.0845
      5 N         139.5619  139.4475  167.0542 N.ar    1  UNL1       -0.2240
      6 C         139.7874  140.7851  167.6946 C.ar    1  UNL1        0.1988
      7 N         140.4803  141.8748  166.9314 N.ar    1  UNL1       -0.2240
      8 C         140.9476  141.6269  165.5278 C.ar    1  UNL1        0.0844
      9 C         140.7221  140.2894  164.8874 C.ar    1  UNL1        0.0354
     10 C         141.1895  140.0415  163.4838 C.ar    1  UNL1        0.0030
     11 C         142.3660  137.9605  158.6325 C.ar    1  UNL1        0.2288
     12 N         143.2626  137.6347  159.7900 N.ar    1  UNL1       -0.2102
     13 C         142.7953  137.8825  161.1937 C.ar    1  UNL1        0.1020
     14 C         141.4313  138.4561  161.4397 C.ar    1  UNL1        0.0193
     15 C         140.5347  138.7820  160.2822 C.ar    1  UNL1        0.0101
     16 C         141.0020  138.5341  158.8786 C.ar    1  UNL1        0.1244
     17 C         140.1054  138.8600  157.7210 C.3     1  UNL1        0.4229
     18 F         139.2088  139.1858  156.5635 F       1  UNL1       -0.1657
     19 F         139.6533  137.4307  157.6689 F       1  UNL1       -0.1657
     20 F         140.5575  140.2893  157.7731 F       1  UNL1       -0.1657
     21 C         142.9286  136.3097  156.7068 C.3     1  UNL1        0.2542
     22 O         142.8333  137.7127  157.2288 O.3     1  UNL1       -0.4562
     23 C         141.6405  142.7166  164.7646 C.ar    1  UNL1        0.0179
     24 C         143.0572  143.0809  165.0968 C.ar    1  UNL1        0.0015
     25 C         143.7500  144.1707  164.3335 C.ar    1  UNL1        0.0002
     26 C         143.0262  144.8960  163.2381 C.ar    1  UNL1        0.0045
     27 C         141.6095  144.5317  162.9060 C.ar    1  UNL1        0.0536
     28 C         140.9167  143.4421  163.6692 C.ar    1  UNL1        0.0060
     29 C         140.8857  145.2572  161.8105 C.2     1  UNL1        0.2491
     30 O         140.0128  146.4321  162.1385 O.2     1  UNL1       -0.2699
     31 N         141.0348  144.8077  160.3873 N.am    1  UNL1       -0.2726
     32 C         141.9077  143.6328  160.0594 C.3     1  UNL1        0.1152
     33 C         142.0569  143.1833  158.6362 C.3     1  UNL1        0.1149
     34 N         141.3331  143.9087  157.5407 N.am    1  UNL1       -0.2760
     35 C         141.4822  143.4592  156.1175 C.2     1  UNL1        0.2262
     36 C         142.3551  142.2843  155.7896 C.3     1  UNL1        0.0948
     37 O         140.7584  144.1847  155.0221 O.2     1  UNL1       -0.2749
     38 C         140.4601  145.0837  157.8686 C.3     1  UNL1        0.1149
     39 C         140.3110  145.5331  159.2920 C.3     1  UNL1        0.1152
@<TRIPOS>BOND
     1    21    22    1
     2    22    11    1
     3    11    12   ar
     4    12    13   ar
     5    13    14   ar
     6    14     1    1
     7     1     2   ar
     8     2     3   ar
     9     3     4   ar
    10     4     5   ar
    11     5     6   ar
    12     6     7   ar
    13     7     8   ar
    14     8    23    1
    15    23    24   ar
    16    24    25   ar
    17    25    26   ar
    18    26    27   ar
    19    27    29    1
    20    29    30    2
    21    29    31   am
    22    31    32    1
    23    32    33    1
    24    33    34    1
    25    34    35   am
    26    35    36    1
    27    35    37    2
    28    34    38    1
    29    38    39    1
    30    27    28   ar
    31     8     9   ar
    32     9    10   ar
    33    14    15   ar
    34    15    16   ar
    35    16    17    1
    36    17    18    1
    37    17    19    1
    38    17    20    1
    39    16    11   ar
    40    10     1   ar
    41     9     4   ar
    42    28    23   ar
    43    39    31    1
@<TRIPOS>MOLECULE
*****
 39 43 0 0 0
SMALL
GASTEIGER

@<TRIPOS>ATOM
      1 C         143.1901  143.1740  163.6822 C.ar    1  UNL1        0.0016
      2 C         144.2523  143.9548  164.3976 C.ar    1  UNL1        0.0016
      3 C         144.4535  143.7704  165.8726 C.ar    1  UNL1        0.0192
      4 C         143.5924  142.8052  166.6320 C.ar    1  UNL1        0.0845
      5 N         143.7936  142.6208  168.1071 N.ar    1  UNL1       -0.2240
      6 C         142.9326  141.6555  168.8666 C.ar    1  UNL1        0.1988
      7 N         141.8703  140.8746  168.1510 N.ar    1  UNL1       -0.2240
      8 C         141.6692  141.0590  166.6761 C.ar    1  UNL1        0.0844
      9 C         142.5302  142.0243  165.9166 C.ar    1  UNL1        0.0354
     10 C         142.3291  142.2087  164.4417 C.ar    1  UNL1        0.0030
     11 C         142.5865  143.7271  159.2572 C.ar    1  UNL1        0.2288
     12 N         141.9079  144.6479  160.2276 N.ar    1  UNL1       -0.2102
     13 C         142.1091  144.4635  161.7026 C.ar    1  UNL1        0.1020
     14 C         142.9889  143.3583  162.2072 C.ar    1  UNL1        0.0193
     15 C         143.6675  142.4376  161.2368 C.ar    1  UNL1        0.0101
     16 C         143.4664  142.6219  159.7618 C.ar    1  UNL1        0.1244
     17 C         144.1450  141.7011  158.7915 C.3     1  UNL1        0.4229
     18 F         144.8236  140.7803  157.8211 F       1  UNL1       -0.1657
     19 F         145.2937  142.6598  158.6851 F       1  UNL1       -0.1657
     20 F         142.9963  140.7424  158.8979 F       1  UNL1       -0.1657
     21 C         142.1125  145.2781  157.2276 C.3     1  UNL1        0.2542
     22 O         142.3854  143.9114  157.7823 O.3     1  UNL1       -0.4562
     23 C         140.6069  140.2782  165.9607 C.ar    1  UNL1        0.0179
     24 C         139.2518  140.1116  166.5819 C.ar    1  UNL1        0.0015
     25 C         138.1896  139.3307  165.8664 C.ar    1  UNL1        0.0002
     26 C         138.4825  138.7164  164.5297 C.ar    1  UNL1        0.0045
     27 C         139.8376  138.8830  163.9084 C.ar    1  UNL1        0.0536
     28 C         140.8998  139.6638  164.6239 C.ar    1  UNL1        0.0060
     29 C         140.1304  138.2687  162.5717 C.2     1  UNL1        0.2491
     30 O         140.8474  136.9535  162.4915 O.2     1  UNL1       -0.2699
     31 N         139.7063  138.9694  161.3151 N.am    1  UNL1       -0.2726
     32 C         138.9893  140.2846  161.3952 C.3     1  UNL1        0.1152
     33 C         138.5652  140.9854  160.1387 C.3     1  UNL1        0.1149
     34 N         138.8580  140.3710  158.8019 N.am    1  UNL1       -0.2760
     35 C         138.4339  141.0718  157.5454 C.2     1  UNL1        0.2262
     36 C         137.7169  142.3869  157.6255 C.3     1  UNL1        0.0948
     37 O         138.7268  140.4575  156.2087 O.2     1  UNL1       -0.2749
     38 C         139.5750  139.0559  158.7218 C.3     1  UNL1        0.1149
     39 C         139.9991  138.3551  159.9784 C.3     1  UNL1        0.1152
@<TRIPOS>BOND
     1    21    22    1
     2    22    11    1
     3    11    12   ar
     4    12    13   ar
     5    13    14   ar
     6    14     1    1
     7     1     2   ar
     8     2     3   ar
     9     3     4   ar
    10     4     5   ar
    11     5     6   ar
    12     6     7   ar
    13     7     8   ar
    14     8    23    1
    15    23    24   ar
    16    24    25   ar
    17    25    26   ar
    18    26    27   ar
    19    27    29    1
    20    29    30    2
    21    29    31   am
    22    31    32    1
    23    32    33    1
    24    33    34    1
    25    34    35   am
    26    35    36    1
    27    35    37    2
    28    34    38    1
    29    38    39    1
    30    27    28   ar
    31     8     9   ar
    32     9    10   ar
    33    14    15   ar
    34    15    16   ar
    35    16    17    1
    36    17    18    1
    37    17    19    1
    38    17    20    1
    39    16    11   ar
    40    10     1   ar
    41     9     4   ar
    42    28    23   ar
    43    39    31    1
@<TRIPOS>MOLECULE
*****
 39 43 0 0 0
SMALL
GASTEIGER

@<TRIPOS>ATOM
      1 C         142.4086  137.1898  156.0745 C.ar    1  UNL1        0.0016
      2 C         142.3587  137.9254  154.7682 C.ar    1  UNL1        0.0016
      3 C         142.3235  139.4249  154.7528 C.ar    1  UNL1        0.0192
      4 C         142.3382  140.1888  156.0436 C.ar    1  UNL1        0.0845
      5 N         142.3030  141.6884  156.0281 N.ar    1  UNL1       -0.2240
      6 C         142.3176  142.4523  157.3189 C.ar    1  UNL1        0.1988
      7 N         142.3675  141.7166  158.6252 N.ar    1  UNL1       -0.2240
      8 C         142.4027  140.2172  158.6407 C.ar    1  UNL1        0.0844
      9 C         142.3880  139.4532  157.3499 C.ar    1  UNL1        0.0354
     10 C         142.4232  137.9538  157.3653 C.ar    1  UNL1        0.0030
     11 C         142.5143  132.6913  156.1211 C.ar    1  UNL1        0.2288
     12 N         141.3656  133.4078  155.4752 N.ar    1  UNL1       -0.2102
     13 C         141.3304  134.9074  155.4597 C.ar    1  UNL1        0.1020
     14 C         142.4438  135.6903  156.0900 C.ar    1  UNL1        0.0193
     15 C         143.5924  134.9737  156.7359 C.ar    1  UNL1        0.0101
     16 C         143.6277  133.4743  156.7515 C.ar    1  UNL1        0.1244
     17 C         144.7763  132.7577  157.3973 C.3     1  UNL1        0.4229
     18 F         145.9250  132.0411  158.0432 F       1  UNL1       -0.1657
     19 F         145.0968  132.0939  156.0909 F       1  UNL1       -0.1657
     20 F         144.4558  133.4214  158.7037 F       1  UNL1       -0.1657
     21 C         141.7830  130.4129  155.1091 C.3     1  UNL1        0.2542
     22 O         142.5495  131.1918  156.1367 O.3     1  UNL1       -0.4562
     23 C         142.4525  139.4816  159.9470 C.ar    1  UNL1        0.0179
     24 C         143.7596  138.9569  160.4629 C.ar    1  UNL1        0.0015
     25 C         143.8094  138.2214  161.7692 C.ar    1  UNL1        0.0002
     26 C         142.5522  138.0105  162.5596 C.ar    1  UNL1        0.0045
     27 C         141.2451  138.5352  162.0437 C.ar    1  UNL1        0.0536
     28 C         141.1952  139.2707  160.7374 C.ar    1  UNL1        0.0060
     29 C         139.9877  138.3243  162.8342 C.2     1  UNL1        0.2491
     30 O         138.7975  137.6762  162.1913 O.2     1  UNL1       -0.2699
     31 N         139.9207  138.7615  164.2675 N.am    1  UNL1       -0.2726
     32 C         141.1109  139.4096  164.9103 C.3     1  UNL1        0.1152
     33 C         141.0439  139.8469  166.3436 C.3     1  UNL1        0.1149
     34 N         139.7866  139.6360  167.1341 N.am    1  UNL1       -0.2760
     35 C         139.7196  140.0732  168.5673 C.2     1  UNL1        0.2262
     36 C         140.9098  140.7213  169.2102 C.3     1  UNL1        0.0948
     37 O         138.4623  139.8623  169.3577 O.2     1  UNL1       -0.2749
     38 C         138.5964  138.9878  166.4912 C.3     1  UNL1        0.1149
     39 C         138.6634  138.5506  165.0579 C.3     1  UNL1        0.1152
@<TRIPOS>BOND
     1    21    22    1
     2    22    11    1
     3    11    12   ar
     4    12    13   ar
     5    13    14   ar
     6    14     1    1
     7     1     2   ar
     8     2     3   ar
     9     3     4   ar
    10     4     5   ar
    11     5     6   ar
    12     6     7   ar
    13     7     8   ar
    14     8    23    1
    15    23    24   ar
    16    24    25   ar
    17    25    26   ar
    18    26    27   ar
    19    27    29    1
    20    29    30    2
    21    29    31   am
    22    31    32    1
    23    32    33    1
    24    33    34    1
    25    34    35   am
    26    35    36    1
    27    35    37    2
    28    34    38    1
    29    38    39    1
    30    27    28   ar
    31     8     9   ar
    32     9    10   ar
    33    14    15   ar
    34    15    16   ar
    35    16    17    1
    36    17    18    1
    37    17    19    1
    38    17    20    1
    39    16    11   ar
    40    10     1   ar
    41     9     4   ar
    42    28    23   ar
    43    39    31    1
@<TRIPOS>MOLECULE
*****
 39 43 0 0 0
SMALL
GASTEIGER

@<TRIPOS>ATOM
      1 C         141.0178  141.3140  158.9503 C.ar    1  UNL1        0.0016
      2 C         139.9150  142.0943  158.2986 C.ar    1  UNL1        0.0016
      3 C         139.4677  143.3980  158.8904 C.ar    1  UNL1        0.0192
      4 C         140.1232  143.9214  160.1339 C.ar    1  UNL1        0.0845
      5 N         139.6759  145.2251  160.7257 N.ar    1  UNL1       -0.2240
      6 C         140.3314  145.7485  161.9692 C.ar    1  UNL1        0.1988
      7 N         141.4344  144.9681  162.6209 N.ar    1  UNL1       -0.2240
      8 C         141.8816  143.6644  162.0291 C.ar    1  UNL1        0.0844
      9 C         141.2261  143.1410  160.7856 C.ar    1  UNL1        0.0354
     10 C         141.6734  141.8374  160.1938 C.ar    1  UNL1        0.0030
     11 C         142.3598  137.4027  157.1749 C.ar    1  UNL1        0.2288
     12 N         143.0860  137.9796  158.3539 N.ar    1  UNL1       -0.2102
     13 C         142.6386  139.2834  158.9457 C.ar    1  UNL1        0.1020
     14 C         141.4652  140.0102  158.3585 C.ar    1  UNL1        0.0193
     15 C         140.7390  139.4333  157.1796 C.ar    1  UNL1        0.0101
     16 C         141.1863  138.1296  156.5878 C.ar    1  UNL1        0.1244
     17 C         140.4602  137.5527  155.4089 C.3     1  UNL1        0.4229
     18 F         139.7340  136.9758  154.2299 F       1  UNL1       -0.1657
     19 F         139.4619  136.9206  156.3330 F       1  UNL1       -0.1657
     20 F         141.4584  138.1847  154.4847 F       1  UNL1       -0.1657
     21 C         143.8948  136.0781  155.5505 C.3     1  UNL1        0.2542
     22 O         142.8071  136.0990  156.5832 O.3     1  UNL1       -0.4562
     23 C         142.9845  142.8841  162.6808 C.ar    1  UNL1        0.0179
     24 C         144.4102  143.1231  162.2805 C.ar    1  UNL1        0.0015
     25 C         145.5131  142.3427  162.9323 C.ar    1  UNL1        0.0002
     26 C         145.1902  141.3234  163.9843 C.ar    1  UNL1        0.0045
     27 C         143.7645  141.0845  164.3847 C.ar    1  UNL1        0.0536
     28 C         142.6617  141.8648  163.7329 C.ar    1  UNL1        0.0060
     29 C         143.4417  140.0652  165.4368 C.2     1  UNL1        0.2491
     30 O         143.8841  138.6424  165.2634 O.2     1  UNL1       -0.2699
     31 N         142.6765  140.4686  166.6622 N.am    1  UNL1       -0.2726
     32 C         142.2341  141.8914  166.8355 C.3     1  UNL1        0.1152
     33 C         141.4689  142.2948  168.0609 C.3     1  UNL1        0.1149
     34 N         141.1461  141.2755  169.1131 N.am    1  UNL1       -0.2760
     35 C         140.3809  141.6790  170.3385 C.2     1  UNL1        0.2262
     36 C         139.9385  143.1017  170.5118 C.3     1  UNL1        0.0948
     37 O         140.0581  140.6597  171.3905 O.2     1  UNL1       -0.2749
     38 C         141.5885  139.8528  168.9397 C.3     1  UNL1        0.1149
     39 C         142.3537  139.4493  167.7142 C.3     1  UNL1        0.1152
@<TRIPOS>BOND
     1    21    22    1
     2    22    11    1
     3    11    12   ar
     4    12    13   ar
     5    13    14   ar
     6    14     1    1
     7     1     2   ar
     8     2     3   ar
     9     3     4   ar
    10     4     5   ar
    11     5     6   ar
    12     6     7   ar
    13     7     8   ar
    14     8    23    1
    15    23    24   ar
    16    24    25   ar
    17    25    26   ar
    18    26    27   ar
    19    27    29    1
    20    29    30    2
    21    29    31   am
    22    31    32    1
    23    32    33    1
    24    33    34    1
    25    34    35   am
    26    35    36    1
    27    35    37    2
    28    34    38    1
    29    38    39    1
    30    27    28   ar
    31     8     9   ar
    32     9    10   ar
    33    14    15   ar
    34    15    16   ar
    35    16    17    1
    36    17    18    1
    37    17    19    1
    38    17    20    1
    39    16    11   ar
    40    10     1   ar
    41     9     4   ar
    42    28    23   ar
    43    39    31    1
