@<TRIPOS>MOLECULE
*****
 39 45 0 0 0
SMALL
GASTEIGER

@<TRIPOS>ATOM
      1 C         137.7358  139.6199  162.0461 C.3     1  UNL1        0.0700
      2 C         137.5899  140.6887  163.0884 C.3     1  UNL1        0.0193
      3 C         138.2015  140.5017  164.4452 C.3     1  UNL1        0.0287
      4 C         138.9590  139.2458  164.7598 C.3     1  UNL1        0.0955
      5 C         139.1049  138.1769  163.7176 C.3     1  UNL1        0.0287
      6 C         138.4933  138.3640  162.3608 C.3     1  UNL1        0.0193
      7 O         138.6415  139.3031  164.0023 O.3     1  UNL1       -0.3571
      8 C         138.0885  139.4722  162.7755 C.3     1  UNL1        0.1562
      9 N         137.1242  139.8069  160.6893 N.3     1  UNL1       -0.2926
     10 H         136.9165  138.8755  160.3290 H       1  UNL1        0.1236
     11 C         137.8860  140.5264  159.6161 C.3     1  UNL1        0.1152
     12 C         145.1282  141.8949  162.1517 C.3     1  UNL1        0.0513
     13 C         143.7999  142.4051  161.6768 C.3     1  UNL1        0.2095
     14 C         143.5575  143.8816  161.5723 C.3     1  UNL1        0.2487
     15 O         142.2292  144.3919  161.0975 O.3     1  UNL1       -0.4669
     16 C         141.1434  143.4255  160.7271 C.ar    1  UNL1        0.1914
     17 C         139.8152  143.9357  160.2523 C.ar    1  UNL1        0.1384
     18 N         138.7294  142.9693  159.8819 N.ar    1  UNL1       -0.2434
     19 C         138.9719  141.4927  159.9864 C.ar    1  UNL1        0.0782
     20 C         140.3001  140.9826  160.4613 C.ar    1  UNL1        0.0562
     21 C         141.3859  141.9490  160.8316 C.ar    1  UNL1        0.1750
     22 O         142.7141  141.4387  161.3065 O.3     1  UNL1       -0.4722
     23 C         139.5706  139.0588  166.1166 C.3     1  UNL1        0.0604
     24 C         140.6795  139.9612  166.5703 C.3     1  UNL1        0.1335
     25 O         141.2586  139.6691  165.2179 O.3     1  UNL1       -0.3806
     26 C         141.9095  140.8027  166.7413 C.3     1  UNL1        0.1402
     27 N         141.8587  141.4262  168.1046 N.ar    1  UNL1       -0.2915
     28 C         142.7981  142.3503  168.8213 C.ar    1  UNL1        0.2611
     29 O         144.0594  142.8064  168.1496 O.2     1  UNL1       -0.2670
     30 C         142.4761  142.8184  170.2095 C.ar    1  UNL1        0.0623
     31 C         141.2147  142.3624  170.8811 C.ar    1  UNL1        0.0254
     32 C         140.2754  141.4383  170.1645 C.ar    1  UNL1        0.0972
     33 N         138.9625  140.8293  170.5838 N.ar    1  UNL1       -0.2400
     34 C         138.1238  139.9095  169.7468 C.ar    1  UNL1        0.1282
     35 C         138.5769  139.5272  168.3689 C.ar    1  UNL1        0.1588
     36 F         137.7382  138.6074  167.5319 F       1  UNL1       -0.2027
     37 C         139.8686  140.0648  167.8280 C.ar    1  UNL1        0.0500
     38 C         140.5974  140.9702  168.7763 C.ar    1  UNL1        0.0806
     39 H         142.1004  140.1406  165.1178 H       1  UNL1        0.2108
@<TRIPOS>BOND
     1    12    13    1
     2    13    14    1
     3    14    15    1
     4    15    16    1
     5    16    17   ar
     6    17    18   ar
     7    18    19   ar
     8    19    11    1
     9    11     9    1
    10     9     1    1
    11     1     2    1
    12     2     3    1
    13     3     4    1
    14     4    23    1
    15    23    24    1
    16    24    25    1
    17    24    26    1
    18    26    27    1
    19    27    28   ar
    20    28    29    2
    21    28    30   ar
    22    30    31   ar
    23    31    32   ar
    24    32    33   ar
    25    33    34   ar
    26    34    35   ar
    27    35    36    1
    28    35    37   ar
    29    37    38   ar
    30     4     5    1
    31     5     6    1
    32     4     7    1
    33     7     8    1
    34    19    20   ar
    35    20    21   ar
    36    21    22    1
    37    22    13    1
    38    21    16   ar
    39     6     1    1
    40     8     1    1
    41    37    24    1
    42    38    27   ar
    43    38    32   ar
    44     9    10    1
    45    25    39    1
@<TRIPOS>MOLECULE
*****
 39 45 0 0 0
SMALL
GASTEIGER

@<TRIPOS>ATOM
      1 C         137.7988  139.6806  162.0103 C.3     1  UNL1        0.0700
      2 C         138.5303  138.4166  162.3526 C.3     1  UNL1        0.0193
      3 C         139.1288  138.2424  163.7169 C.3     1  UNL1        0.0287
      4 C         138.9959  139.3323  164.7391 C.3     1  UNL1        0.0955
      5 C         138.2644  140.5963  164.3968 C.3     1  UNL1        0.0287
      6 C         137.6659  140.7704  163.0324 C.3     1  UNL1        0.0193
      7 O         138.6512  139.4734  164.0047 O.3     1  UNL1       -0.3571
      8 C         138.1100  139.6309  162.7711 C.3     1  UNL1        0.1562
      9 N         137.2003  139.8548  160.6460 N.3     1  UNL1       -0.2926
     10 H         136.9027  138.9302  160.3347 H       1  UNL1        0.1236
     11 C         138.0212  140.4420  159.5363 C.3     1  UNL1        0.1152
     12 C         141.7773  135.1633  155.2030 C.3     1  UNL1        0.0513
     13 C         141.8030  136.2587  156.2275 C.3     1  UNL1        0.2095
     14 C         143.1063  136.6899  156.8318 C.3     1  UNL1        0.2487
     15 O         143.1320  137.7853  157.8563 O.3     1  UNL1       -0.4669
     16 C         141.8543  138.4494  158.2763 C.ar    1  UNL1        0.1914
     17 C         141.8799  139.5448  159.3008 C.ar    1  UNL1        0.1384
     18 N         140.6022  140.2090  159.7207 N.ar    1  UNL1       -0.2434
     19 C         139.2989  139.7777  159.1163 C.ar    1  UNL1        0.0782
     20 C         139.2732  138.6824  158.0919 C.ar    1  UNL1        0.0562
     21 C         140.5510  138.0182  157.6719 C.ar    1  UNL1        0.1750
     22 O         140.5252  136.9229  156.6474 O.3     1  UNL1       -0.4722
     23 C         139.5944  139.1580  166.1034 C.3     1  UNL1        0.0604
     24 C         140.7104  140.0539  166.5528 C.3     1  UNL1        0.1335
     25 O         141.2526  139.8065  165.1763 O.3     1  UNL1       -0.3806
     26 C         141.9397  140.8981  166.7145 C.3     1  UNL1        0.1402
     27 N         141.9239  141.4800  168.0969 N.ar    1  UNL1       -0.2915
     28 C         142.8778  142.3884  168.8145 C.ar    1  UNL1        0.2611
     29 O         144.1168  142.8730  168.1217 O.2     1  UNL1       -0.2670
     30 C         142.5925  142.8123  170.2247 C.ar    1  UNL1        0.0623
     31 C         141.3534  142.3278  170.9175 C.ar    1  UNL1        0.0254
     32 C         140.3996  141.4193  170.1999 C.ar    1  UNL1        0.0972
     33 N         139.1028  140.7891  170.6375 N.ar    1  UNL1       -0.2400
     34 C         138.2462  139.8893  169.7969 C.ar    1  UNL1        0.1282
     35 C         138.6622  139.5518  168.3959 C.ar    1  UNL1        0.1588
     36 F         137.8056  138.6519  167.5554 F       1  UNL1       -0.2027
     37 C         139.9349  140.1141  167.8353 C.ar    1  UNL1        0.0500
     38 C         140.6849  140.9954  168.7897 C.ar    1  UNL1        0.0806
     39 H         142.0884  140.2865  165.0669 H       1  UNL1        0.2108
@<TRIPOS>BOND
     1    12    13    1
     2    13    14    1
     3    14    15    1
     4    15    16    1
     5    16    17   ar
     6    17    18   ar
     7    18    19   ar
     8    19    11    1
     9    11     9    1
    10     9     1    1
    11     1     2    1
    12     2     3    1
    13     3     4    1
    14     4    23    1
    15    23    24    1
    16    24    25    1
    17    24    26    1
    18    26    27    1
    19    27    28   ar
    20    28    29    2
    21    28    30   ar
    22    30    31   ar
    23    31    32   ar
    24    32    33   ar
    25    33    34   ar
    26    34    35   ar
    27    35    36    1
    28    35    37   ar
    29    37    38   ar
    30     4     5    1
    31     5     6    1
    32     4     7    1
    33     7     8    1
    34    19    20   ar
    35    20    21   ar
    36    21    22    1
    37    22    13    1
    38    21    16   ar
    39     6     1    1
    40     8     1    1
    41    37    24    1
    42    38    27   ar
    43    38    32   ar
    44     9    10    1
    45    25    39    1
@<TRIPOS>MOLECULE
*****
 39 45 0 0 0
SMALL
GASTEIGER

@<TRIPOS>ATOM
      1 C         137.7796  139.6037  162.0583 C.3     1  UNL1        0.0700
      2 C         137.7077  140.7299  163.0465 C.3     1  UNL1        0.0193
      3 C         138.3170  140.5730  164.4081 C.3     1  UNL1        0.0287
      4 C         138.9984  139.2898  164.7816 C.3     1  UNL1        0.0955
      5 C         139.0703  138.1636  163.7934 C.3     1  UNL1        0.0287
      6 C         138.4609  138.3206  162.4318 C.3     1  UNL1        0.0193
      7 O         138.6791  139.3290  164.0236 O.3     1  UNL1       -0.3571
      8 C         138.1281  139.4709  162.7925 C.3     1  UNL1        0.1562
      9 N         137.1702  139.7606  160.6966 N.3     1  UNL1       -0.2926
     10 H         136.5990  138.9317  160.5324 H       1  UNL1        0.1236
     11 C         138.0524  139.9237  159.4945 C.3     1  UNL1        0.1152
     12 C         140.0421  146.6562  156.1084 C.3     1  UNL1        0.0513
     13 C         140.2975  145.5934  157.1358 C.3     1  UNL1        0.2095
     14 C         141.4716  145.7122  158.0617 C.3     1  UNL1        0.2487
     15 O         141.7271  144.6495  159.0891 O.3     1  UNL1       -0.4669
     16 C         140.8084  143.4681  159.1904 C.ar    1  UNL1        0.1914
     17 C         141.0638  142.4053  160.2178 C.ar    1  UNL1        0.1384
     18 N         140.1451  141.2239  160.3191 N.ar    1  UNL1       -0.2434
     19 C         138.9710  141.1052  159.3931 C.ar    1  UNL1        0.0782
     20 C         138.7156  142.1679  158.3658 C.ar    1  UNL1        0.0562
     21 C         139.6343  143.3493  158.2645 C.ar    1  UNL1        0.1750
     22 O         139.3788  144.4120  157.2371 O.3     1  UNL1       -0.4722
     23 C         139.6077  139.1329  166.1432 C.3     1  UNL1        0.0604
     24 C         140.7292  140.0324  166.5712 C.3     1  UNL1        0.1335
     25 O         141.2795  139.7333  165.2082 O.3     1  UNL1       -0.3806
     26 C         141.9658  140.8694  166.7143 C.3     1  UNL1        0.1402
     27 N         141.9453  141.4977  168.0762 N.ar    1  UNL1       -0.2915
     28 C         142.9027  142.4203  168.7704 C.ar    1  UNL1        0.2611
     29 O         144.1519  142.8690  168.0717 O.2     1  UNL1       -0.2670
     30 C         142.6109  142.8944  170.1632 C.ar    1  UNL1        0.0623
     31 C         141.3617  142.4457  170.8619 C.ar    1  UNL1        0.0254
     32 C         140.4042  141.5231  170.1677 C.ar    1  UNL1        0.0972
     33 N         139.0977  140.9208  170.6158 N.ar    1  UNL1       -0.2400
     34 C         138.2385  140.0016  169.7991 C.ar    1  UNL1        0.1282
     35 C         138.6619  139.6130  168.4136 C.ar    1  UNL1        0.1588
     36 F         137.8027  138.6938  167.5970 F       1  UNL1       -0.2027
     37 C         139.9445  140.1434  167.8447 C.ar    1  UNL1        0.0500
     38 C         140.6960  141.0490  168.7749 C.ar    1  UNL1        0.0806
     39 H         142.1209  140.2011  165.0895 H       1  UNL1        0.2108
@<TRIPOS>BOND
     1    12    13    1
     2    13    14    1
     3    14    15    1
     4    15    16    1
     5    16    17   ar
     6    17    18   ar
     7    18    19   ar
     8    19    11    1
     9    11     9    1
    10     9     1    1
    11     1     2    1
    12     2     3    1
    13     3     4    1
    14     4    23    1
    15    23    24    1
    16    24    25    1
    17    24    26    1
    18    26    27    1
    19    27    28   ar
    20    28    29    2
    21    28    30   ar
    22    30    31   ar
    23    31    32   ar
    24    32    33   ar
    25    33    34   ar
    26    34    35   ar
    27    35    36    1
    28    35    37   ar
    29    37    38   ar
    30     4     5    1
    31     5     6    1
    32     4     7    1
    33     7     8    1
    34    19    20   ar
    35    20    21   ar
    36    21    22    1
    37    22    13    1
    38    21    16   ar
    39     6     1    1
    40     8     1    1
    41    37    24    1
    42    38    27   ar
    43    38    32   ar
    44     9    10    1
    45    25    39    1
@<TRIPOS>MOLECULE
*****
 39 45 0 0 0
SMALL
GASTEIGER

@<TRIPOS>ATOM
      1 C         144.5401  142.7087  161.8704 C.3     1  UNL1        0.0700
      2 C         144.2693  142.3009  160.4526 C.3     1  UNL1        0.0193
      3 C         143.0896  142.8693  159.7209 C.3     1  UNL1        0.0287
      4 C         142.1808  143.8457  160.4072 C.3     1  UNL1        0.0955
      5 C         142.4516  144.2535  161.8250 C.3     1  UNL1        0.0287
      6 C         143.6313  143.6850  162.5566 C.3     1  UNL1        0.0193
      7 O         142.8147  143.5611  160.8489 O.3     1  UNL1       -0.3571
      8 C         143.8813  143.0471  161.5104 C.3     1  UNL1        0.1562
      9 N         145.7198  142.1403  162.6021 N.3     1  UNL1       -0.2926
     10 H         146.3471  141.7559  161.8956 H       1  UNL1        0.1236
     11 C         145.5182  141.0682  163.6316 C.3     1  UNL1        0.1152
     12 C         138.4474  139.0773  166.2376 C.3     1  UNL1        0.0513
     13 C         139.5972  138.8531  165.3007 C.3     1  UNL1        0.2095
     14 C         139.5399  137.7411  164.2957 C.3     1  UNL1        0.2487
     15 O         140.6897  137.5169  163.3588 O.3     1  UNL1       -0.4669
     16 C         141.8968  138.4047  163.4270 C.ar    1  UNL1        0.1914
     17 C         143.0466  138.1805  162.4902 C.ar    1  UNL1        0.1384
     18 N         144.2537  139.0684  162.5584 N.ar    1  UNL1       -0.2434
     19 C         144.3110  140.1804  163.5634 C.ar    1  UNL1        0.0782
     20 C         143.1612  140.4046  164.5003 C.ar    1  UNL1        0.0562
     21 C         141.9541  139.5167  164.4320 C.ar    1  UNL1        0.1750
     22 O         140.8044  139.7410  165.3689 O.3     1  UNL1       -0.4722
     23 C         141.0011  144.4141  159.6755 C.3     1  UNL1        0.0604
     24 C         139.9314  143.5014  159.1534 C.3     1  UNL1        0.1335
     25 O         140.0123  142.8837  160.5179 O.3     1  UNL1       -0.3806
     26 C         138.8786  142.4595  158.9166 C.3     1  UNL1        0.1402
     27 N         138.3706  142.6241  157.5148 N.ar    1  UNL1       -0.2915
     28 C         137.3308  141.8803  156.7303 C.ar    1  UNL1        0.2611
     29 O         136.5919  140.7367  157.3598 O.2     1  UNL1       -0.2670
     30 C         137.0298  142.2802  155.3163 C.ar    1  UNL1        0.0623
     31 C         137.7686  143.4238  154.6868 C.ar    1  UNL1        0.0254
     32 C         138.8085  144.1676  155.4713 C.ar    1  UNL1        0.0972
     33 N         139.6901  145.3331  155.1042 N.ar    1  UNL1       -0.2400
     34 C         140.6978  145.9796  156.0078 C.ar    1  UNL1        0.1282
     35 C         140.8898  145.4680  157.4047 C.ar    1  UNL1        0.1588
     36 F         141.8976  146.1145  158.3083 F       1  UNL1       -0.2027
     37 C         140.0741  144.3099  157.8981 C.ar    1  UNL1        0.0500
     38 C         139.1095  143.7677  156.8853 C.ar    1  UNL1        0.0806
     39 H         139.3792  142.1514  160.5794 H       1  UNL1        0.2108
@<TRIPOS>BOND
     1    12    13    1
     2    13    14    1
     3    14    15    1
     4    15    16    1
     5    16    17   ar
     6    17    18   ar
     7    18    19   ar
     8    19    11    1
     9    11     9    1
    10     9     1    1
    11     1     2    1
    12     2     3    1
    13     3     4    1
    14     4    23    1
    15    23    24    1
    16    24    25    1
    17    24    26    1
    18    26    27    1
    19    27    28   ar
    20    28    29    2
    21    28    30   ar
    22    30    31   ar
    23    31    32   ar
    24    32    33   ar
    25    33    34   ar
    26    34    35   ar
    27    35    36    1
    28    35    37   ar
    29    37    38   ar
    30     4     5    1
    31     5     6    1
    32     4     7    1
    33     7     8    1
    34    19    20   ar
    35    20    21   ar
    36    21    22    1
    37    22    13    1
    38    21    16   ar
    39     6     1    1
    40     8     1    1
    41    37    24    1
    42    38    27   ar
    43    38    32   ar
    44     9    10    1
    45    25    39    1
@<TRIPOS>MOLECULE
*****
 39 45 0 0 0
SMALL
GASTEIGER

@<TRIPOS>ATOM
      1 C         141.9139  144.3621  161.6898 C.3     1  UNL1        0.0700
      2 C         143.0952  143.4378  161.6851 C.3     1  UNL1        0.0193
      3 C         143.2705  142.4391  162.7904 C.3     1  UNL1        0.0287
      4 C         142.2643  142.3646  163.9005 C.3     1  UNL1        0.0955
      5 C         141.0829  143.2889  163.9052 C.3     1  UNL1        0.0287
      6 C         140.9077  144.2876  162.7998 C.3     1  UNL1        0.0193
      7 O         142.1258  142.9283  163.3165 O.3     1  UNL1       -0.3571
      8 C         141.9674  143.8314  162.3171 C.3     1  UNL1        0.1562
      9 N         141.7386  145.3609  160.5844 N.3     1  UNL1       -0.2926
     10 H         141.3429  146.2009  161.0066 H       1  UNL1        0.1236
     11 C         140.8809  145.0262  159.4003 C.3     1  UNL1        0.1152
     12 C         141.9894  137.6914  157.0078 C.3     1  UNL1        0.0513
     13 C         141.1078  138.7386  157.6214 C.3     1  UNL1        0.2095
     14 C         139.7141  138.3878  158.0508 C.3     1  UNL1        0.2487
     15 O         138.8324  139.4349  158.6644 O.3     1  UNL1       -0.4669
     16 C         139.3445  140.8327  158.8483 C.ar    1  UNL1        0.1914
     17 C         138.4630  141.8798  159.4618 C.ar    1  UNL1        0.1384
     18 N         138.9751  143.2776  159.6458 N.ar    1  UNL1       -0.2434
     19 C         140.3688  143.6283  159.2163 C.ar    1  UNL1        0.0782
     20 C         141.2504  142.5812  158.6028 C.ar    1  UNL1        0.0562
     21 C         140.7383  141.1834  158.4188 C.ar    1  UNL1        0.1750
     22 O         141.6199  140.1364  157.8053 O.3     1  UNL1       -0.4722
     23 C         142.4395  141.3658  165.0058 C.3     1  UNL1        0.0604
     24 C         142.5555  141.8322  166.4267 C.3     1  UNL1        0.1335
     25 O         143.7373  142.5999  165.9127 O.3     1  UNL1       -0.3806
     26 C         142.9186  142.4591  167.7402 C.3     1  UNL1        0.1402
     27 N         141.9370  141.9814  168.7689 N.ar    1  UNL1       -0.2915
     28 C         141.8009  142.2670  170.2351 C.ar    1  UNL1        0.2611
     29 O         142.7706  143.1892  170.9128 O.2     1  UNL1       -0.2670
     30 C         140.6951  141.6304  171.0237 C.ar    1  UNL1        0.0623
     31 C         139.7253  140.7082  170.3460 C.ar    1  UNL1        0.0254
     32 C         139.8614  140.4227  168.8798 C.ar    1  UNL1        0.0972
     33 N         139.0494  139.5550  167.9534 N.ar    1  UNL1       -0.2400
     34 C         139.3100  139.3651  166.4885 C.ar    1  UNL1        0.1282
     35 C         140.4601  140.0711  165.8336 C.ar    1  UNL1        0.1588
     36 F         140.7207  139.8812  164.3687 F       1  UNL1       -0.2027
     37 C         141.3496  140.9671  166.6437 C.ar    1  UNL1        0.0500
     38 C         140.9673  141.0593  168.0912 C.ar    1  UNL1        0.0806
     39 H         144.1388  143.1005  166.6401 H       1  UNL1        0.2108
@<TRIPOS>BOND
     1    12    13    1
     2    13    14    1
     3    14    15    1
     4    15    16    1
     5    16    17   ar
     6    17    18   ar
     7    18    19   ar
     8    19    11    1
     9    11     9    1
    10     9     1    1
    11     1     2    1
    12     2     3    1
    13     3     4    1
    14     4    23    1
    15    23    24    1
    16    24    25    1
    17    24    26    1
    18    26    27    1
    19    27    28   ar
    20    28    29    2
    21    28    30   ar
    22    30    31   ar
    23    31    32   ar
    24    32    33   ar
    25    33    34   ar
    26    34    35   ar
    27    35    36    1
    28    35    37   ar
    29    37    38   ar
    30     4     5    1
    31     5     6    1
    32     4     7    1
    33     7     8    1
    34    19    20   ar
    35    20    21   ar
    36    21    22    1
    37    22    13    1
    38    21    16   ar
    39     6     1    1
    40     8     1    1
    41    37    24    1
    42    38    27   ar
    43    38    32   ar
    44     9    10    1
    45    25    39    1
@<TRIPOS>MOLECULE
*****
 39 45 0 0 0
SMALL
GASTEIGER

@<TRIPOS>ATOM
      1 C         141.0522  139.1927  158.2621 C.3     1  UNL1        0.0700
      2 C         139.7799  138.4472  158.5367 C.3     1  UNL1        0.0193
      3 C         139.3971  138.1111  159.9476 C.3     1  UNL1        0.0287
      4 C         140.2868  138.5205  161.0839 C.3     1  UNL1        0.0955
      5 C         141.5590  139.2661  160.8093 C.3     1  UNL1        0.0287
      6 C         141.9417  139.6022  159.3984 C.3     1  UNL1        0.0193
      7 O         140.5384  138.7271  160.3276 O.3     1  UNL1       -0.3571
      8 C         140.8845  139.0310  159.0520 C.3     1  UNL1        0.1562
      9 N         141.4350  139.5289  156.8513 N.3     1  UNL1       -0.2926
     10 H         140.5825  139.4741  156.2939 H       1  UNL1        0.1236
     11 C         142.4708  138.7098  156.1399 C.3     1  UNL1        0.1152
     12 C         144.9774  131.5403  157.8910 C.3     1  UNL1        0.0513
     13 C         143.9867  132.4411  157.2146 C.3     1  UNL1        0.2095
     14 C         142.8412  131.8527  156.4457 C.3     1  UNL1        0.2487
     15 O         141.8505  132.7534  155.7693 O.3     1  UNL1       -0.4669
     16 C         142.0056  134.2425  155.8620 C.ar    1  UNL1        0.1914
     17 C         141.0150  135.1432  155.1856 C.ar    1  UNL1        0.1384
     18 N         141.1701  136.6323  155.2783 N.ar    1  UNL1       -0.2434
     19 C         142.3158  137.2207  156.0473 C.ar    1  UNL1        0.0782
     20 C         143.3063  136.3199  156.7236 C.ar    1  UNL1        0.0562
     21 C         143.1512  134.8308  156.6309 C.ar    1  UNL1        0.1750
     22 O         144.1418  133.9302  157.3073 O.3     1  UNL1       -0.4722
     23 C         139.9040  138.1844  162.4948 C.3     1  UNL1        0.0604
     24 C         140.9648  138.0383  163.5452 C.3     1  UNL1        0.1335
     25 O         141.4895  136.9620  162.6417 O.3     1  UNL1       -0.3806
     26 C         142.1353  137.6672  164.4067 C.3     1  UNL1        0.1402
     27 N         142.1123  138.5446  165.6230 N.ar    1  UNL1       -0.2915
     28 C         143.0171  138.6299  166.8164 C.ar    1  UNL1        0.2611
     29 O         144.2018  137.7164  166.9261 O.2     1  UNL1       -0.2670
     30 C         142.7371  139.6286  167.8999 C.ar    1  UNL1        0.0623
     31 C         141.5524  140.5420  167.7902 C.ar    1  UNL1        0.0254
     32 C         140.6476  140.4568  166.5969 C.ar    1  UNL1        0.0972
     33 N         139.4093  141.2316  166.2271 N.ar    1  UNL1       -0.2400
     34 C         138.5979  141.0314  164.9815 C.ar    1  UNL1        0.1282
     35 C         139.0025  139.9881  163.9825 C.ar    1  UNL1        0.1588
     36 F         138.1910  139.7880  162.7369 F       1  UNL1       -0.2027
     37 C         140.2184  139.1451  164.2291 C.ar    1  UNL1        0.0500
     38 C         140.9276  139.4581  165.5133 C.ar    1  UNL1        0.0806
     39 H         142.2865  136.5714  163.0329 H       1  UNL1        0.2108
@<TRIPOS>BOND
     1    12    13    1
     2    13    14    1
     3    14    15    1
     4    15    16    1
     5    16    17   ar
     6    17    18   ar
     7    18    19   ar
     8    19    11    1
     9    11     9    1
    10     9     1    1
    11     1     2    1
    12     2     3    1
    13     3     4    1
    14     4    23    1
    15    23    24    1
    16    24    25    1
    17    24    26    1
    18    26    27    1
    19    27    28   ar
    20    28    29    2
    21    28    30   ar
    22    30    31   ar
    23    31    32   ar
    24    32    33   ar
    25    33    34   ar
    26    34    35   ar
    27    35    36    1
    28    35    37   ar
    29    37    38   ar
    30     4     5    1
    31     5     6    1
    32     4     7    1
    33     7     8    1
    34    19    20   ar
    35    20    21   ar
    36    21    22    1
    37    22    13    1
    38    21    16   ar
    39     6     1    1
    40     8     1    1
    41    37    24    1
    42    38    27   ar
    43    38    32   ar
    44     9    10    1
    45    25    39    1
@<TRIPOS>MOLECULE
*****
 39 45 0 0 0
SMALL
GASTEIGER

@<TRIPOS>ATOM
      1 C         138.4368  139.0445  165.7085 C.3     1  UNL1        0.0700
      2 C         138.1456  140.1635  164.7530 C.3     1  UNL1        0.0193
      3 C         138.2532  139.9344  163.2745 C.3     1  UNL1        0.0287
      4 C         138.6520  138.5862  162.7515 C.3     1  UNL1        0.0955
      5 C         138.9432  137.4672  163.7070 C.3     1  UNL1        0.0287
      6 C         138.8355  137.6964  165.1855 C.3     1  UNL1        0.0193
      7 O         138.6064  138.6638  163.5699 O.3     1  UNL1       -0.3571
      8 C         138.5091  138.8710  164.9068 C.3     1  UNL1        0.1562
      9 N         138.3292  139.2736  167.1870 N.3     1  UNL1       -0.2926
     10 H         137.5095  139.8624  167.3348 H       1  UNL1        0.1236
     11 C         139.4628  139.9150  167.9309 C.3     1  UNL1        0.1152
     12 C         143.3713  145.2028  163.7460 C.3     1  UNL1        0.0513
     13 C         143.3076  143.8570  164.4056 C.3     1  UNL1        0.2095
     14 C         144.4829  142.9283  164.3298 C.3     1  UNL1        0.2487
     15 O         144.4193  141.5825  164.9893 O.3     1  UNL1       -0.4669
     16 C         143.1802  141.1657  165.7247 C.ar    1  UNL1        0.1914
     17 C         143.1164  139.8200  166.3843 C.ar    1  UNL1        0.1384
     18 N         141.8773  139.4031  167.1197 N.ar    1  UNL1       -0.2434
     19 C         140.7019  140.3319  167.1955 C.ar    1  UNL1        0.0782
     20 C         140.7657  141.6776  166.5359 C.ar    1  UNL1        0.0562
     21 C         142.0048  142.0945  165.8005 C.ar    1  UNL1        0.1750
     22 O         142.0684  143.4402  165.1410 O.3     1  UNL1       -0.4722
     23 C         138.7596  138.3571  161.2730 C.3     1  UNL1        0.0604
     24 C         140.0702  138.5687  160.5747 C.3     1  UNL1        0.1335
     25 O         140.5967  137.6228  161.6129 O.3     1  UNL1       -0.3806
     26 C         141.4908  138.5826  160.0934 C.3     1  UNL1        0.1402
     27 N         141.5683  139.4928  158.9036 N.ar    1  UNL1       -0.2915
     28 C         142.7114  139.8930  158.0188 C.ar    1  UNL1        0.2611
     29 O         144.0842  139.3443  158.2728 O.2     1  UNL1       -0.2670
     30 C         142.4819  140.8418  156.8800 C.ar    1  UNL1        0.0623
     31 C         141.1091  141.3905  156.6260 C.ar    1  UNL1        0.0254
     32 C         139.9660  140.9904  157.5108 C.ar    1  UNL1        0.0972
     33 N         138.5094  141.3756  157.4933 N.ar    1  UNL1       -0.2400
     34 C         137.4691  140.8873  158.4574 C.ar    1  UNL1        0.1282
     35 C         137.8493  139.9347  159.5519 C.ar    1  UNL1        0.1588
     36 F         136.8091  139.4464  160.5160 F       1  UNL1       -0.2027
     37 C         139.2697  139.4704  159.6824 C.ar    1  UNL1        0.0500
     38 C         140.1955  140.0415  158.6496 C.ar    1  UNL1        0.0806
     39 H         141.5474  137.4880  161.4751 H       1  UNL1        0.2108
@<TRIPOS>BOND
     1    12    13    1
     2    13    14    1
     3    14    15    1
     4    15    16    1
     5    16    17   ar
     6    17    18   ar
     7    18    19   ar
     8    19    11    1
     9    11     9    1
    10     9     1    1
    11     1     2    1
    12     2     3    1
    13     3     4    1
    14     4    23    1
    15    23    24    1
    16    24    25    1
    17    24    26    1
    18    26    27    1
    19    27    28   ar
    20    28    29    2
    21    28    30   ar
    22    30    31   ar
    23    31    32   ar
    24    32    33   ar
    25    33    34   ar
    26    34    35   ar
    27    35    36    1
    28    35    37   ar
    29    37    38   ar
    30     4     5    1
    31     5     6    1
    32     4     7    1
    33     7     8    1
    34    19    20   ar
    35    20    21   ar
    36    21    22    1
    37    22    13    1
    38    21    16   ar
    39     6     1    1
    40     8     1    1
    41    37    24    1
    42    38    27   ar
    43    38    32   ar
    44     9    10    1
    45    25    39    1
@<TRIPOS>MOLECULE
*****
 39 45 0 0 0
SMALL
GASTEIGER

@<TRIPOS>ATOM
      1 C         144.2389  140.1228  157.2574 C.3     1  UNL1        0.0700
      2 C         143.4113  139.7697  158.4576 C.3     1  UNL1        0.0193
      3 C         143.3095  140.7283  159.6068 C.3     1  UNL1        0.0287
      4 C         144.0353  142.0401  159.5558 C.3     1  UNL1        0.0955
      5 C         144.8628  142.3932  158.3556 C.3     1  UNL1        0.0287
      6 C         144.9646  141.4345  157.2064 C.3     1  UNL1        0.0193
      7 O         144.1212  141.5472  158.9019 O.3     1  UNL1       -0.3571
      8 C         144.2133  140.6804  157.8628 C.3     1  UNL1        0.1562
      9 N         144.3407  139.1641  156.1082 N.3     1  UNL1       -0.2926
     10 H         144.8669  139.6388  155.3746 H       1  UNL1        0.1236
     11 C         143.0955  138.6253  155.4686 C.3     1  UNL1        0.1152
     12 C         144.9497  131.4485  157.8781 C.3     1  UNL1        0.0513
     13 C         143.9929  132.3850  157.2015 C.3     1  UNL1        0.2095
     14 C         142.6976  131.8657  156.6517 C.3     1  UNL1        0.2487
     15 O         141.7408  132.8022  155.9752 O.3     1  UNL1       -0.4669
     16 C         142.0795  134.2580  155.8485 C.ar    1  UNL1        0.1914
     17 C         141.1228  135.1945  155.1720 C.ar    1  UNL1        0.1384
     18 N         141.4615  136.6503  155.0454 N.ar    1  UNL1       -0.2434
     19 C         142.7569  137.1695  155.5952 C.ar    1  UNL1        0.0782
     20 C         143.7136  136.2330  156.2718 C.ar    1  UNL1        0.0562
     21 C         143.3749  134.7772  156.3984 C.ar    1  UNL1        0.1750
     22 O         144.3316  133.8408  157.0749 O.3     1  UNL1       -0.4722
     23 C         143.9335  142.9988  160.7050 C.3     1  UNL1        0.0604
     24 C         142.6161  143.6348  161.0367 C.3     1  UNL1        0.1335
     25 O         142.6401  144.0640  159.5996 O.3     1  UNL1       -0.3806
     26 C         141.3038  144.3606  161.0680 C.3     1  UNL1        0.1402
     27 N         140.7442  144.2470  162.4550 N.ar    1  UNL1       -0.2915
     28 C         139.4794  144.7655  163.0726 C.ar    1  UNL1        0.2611
     29 O         138.5129  145.5615  162.2466 O.2     1  UNL1       -0.2670
     30 C         139.1811  144.4881  164.5162 C.ar    1  UNL1        0.0623
     31 C         140.1476  143.6921  165.3422 C.ar    1  UNL1        0.0254
     32 C         141.4124  143.1735  164.7246 C.ar    1  UNL1        0.0972
     33 N         142.5437  142.3621  165.3010 N.ar    1  UNL1       -0.2400
     34 C         143.7612  141.9112  164.5498 C.ar    1  UNL1        0.1282
     35 C         143.9231  142.2665  163.1015 C.ar    1  UNL1        0.1588
     36 F         145.1406  141.8156  162.3503 F       1  UNL1       -0.2027
     37 C         142.8676  143.0727  162.4044 C.ar    1  UNL1        0.0500
     38 C         141.7107  143.4510  163.2810 C.ar    1  UNL1        0.0806
     39 H         141.8391  144.5740  159.4011 H       1  UNL1        0.2108
@<TRIPOS>BOND
     1    12    13    1
     2    13    14    1
     3    14    15    1
     4    15    16    1
     5    16    17   ar
     6    17    18   ar
     7    18    19   ar
     8    19    11    1
     9    11     9    1
    10     9     1    1
    11     1     2    1
    12     2     3    1
    13     3     4    1
    14     4    23    1
    15    23    24    1
    16    24    25    1
    17    24    26    1
    18    26    27    1
    19    27    28   ar
    20    28    29    2
    21    28    30   ar
    22    30    31   ar
    23    31    32   ar
    24    32    33   ar
    25    33    34   ar
    26    34    35   ar
    27    35    36    1
    28    35    37   ar
    29    37    38   ar
    30     4     5    1
    31     5     6    1
    32     4     7    1
    33     7     8    1
    34    19    20   ar
    35    20    21   ar
    36    21    22    1
    37    22    13    1
    38    21    16   ar
    39     6     1    1
    40     8     1    1
    41    37    24    1
    42    38    27   ar
    43    38    32   ar
    44     9    10    1
    45    25    39    1
@<TRIPOS>MOLECULE
*****
 39 45 0 0 0
SMALL
GASTEIGER

@<TRIPOS>ATOM
      1 C         144.5176  142.7384  162.0482 C.3     1  UNL1        0.0700
      2 C         143.7458  143.8266  162.7338 C.3     1  UNL1        0.0193
      3 C         142.5295  144.4107  162.0783 C.3     1  UNL1        0.0287
      4 C         142.0851  143.9065  160.7372 C.3     1  UNL1        0.0955
      5 C         142.8570  142.8184  160.0516 C.3     1  UNL1        0.0287
      6 C         144.0733  142.2343  160.7071 C.3     1  UNL1        0.0193
      7 O         142.7579  143.5556  161.0570 O.3     1  UNL1       -0.3571
      8 C         143.8576  143.0275  161.6496 C.3     1  UNL1        0.1562
      9 N         145.7339  142.1543  162.7036 N.3     1  UNL1       -0.2926
     10 H         146.3351  141.8099  161.9550 H       1  UNL1        0.1236
     11 C         145.5888  141.0353  163.6919 C.3     1  UNL1        0.1152
     12 C         138.6264  139.1628  166.6533 C.3     1  UNL1        0.0513
     13 C         139.7177  138.9279  165.6512 C.3     1  UNL1        0.2095
     14 C         139.5793  137.8340  164.6344 C.3     1  UNL1        0.2487
     15 O         140.6705  137.5991  163.6322 O.3     1  UNL1       -0.4669
     16 C         141.9000  138.4581  163.6472 C.ar    1  UNL1        0.1914
     17 C         142.9913  138.2233  162.6452 C.ar    1  UNL1        0.1384
     18 N         144.2208  139.0824  162.6601 N.ar    1  UNL1       -0.2434
     19 C         144.3591  140.1763  163.6770 C.ar    1  UNL1        0.0782
     20 C         143.2679  140.4111  164.6791 C.ar    1  UNL1        0.0562
     21 C         142.0384  139.5520  164.6641 C.ar    1  UNL1        0.1750
     22 O         140.9472  139.7870  165.6662 O.3     1  UNL1       -0.4722
     23 C         140.8689  144.4906  160.0818 C.3     1  UNL1        0.0604
     24 C         140.9437  144.9859  158.6679 C.3     1  UNL1        0.1335
     25 O         141.9775  145.9236  159.2173 O.3     1  UNL1       -0.3806
     26 C         141.2346  145.6771  157.3688 C.3     1  UNL1        0.1402
     27 N         140.3650  145.0630  156.3120 N.ar    1  UNL1       -0.2915
     28 C         140.2204  145.3406  154.8451 C.ar    1  UNL1        0.2611
     29 O         141.0488  146.4113  154.1991 O.2     1  UNL1       -0.2670
     30 C         139.2475  144.5473  154.0241 C.ar    1  UNL1        0.0623
     31 C         138.4191  143.4765  154.6700 C.ar    1  UNL1        0.0254
     32 C         138.5637  143.1990  156.1370 C.ar    1  UNL1        0.0972
     33 N         137.8766  142.2040  157.0359 N.ar    1  UNL1       -0.2400
     34 C         138.1291  142.0405  158.5055 C.ar    1  UNL1        0.1282
     35 C         139.1379  142.9108  159.1945 C.ar    1  UNL1        0.1588
     36 F         139.3904  142.7473  160.6640 F       1  UNL1       -0.2027
     37 C         139.8943  143.9446  158.4139 C.ar    1  UNL1        0.0500
     38 C         139.5366  143.9922  156.9580 C.ar    1  UNL1        0.0806
     39 H         142.3124  146.4895  158.5042 H       1  UNL1        0.2108
@<TRIPOS>BOND
     1    12    13    1
     2    13    14    1
     3    14    15    1
     4    15    16    1
     5    16    17   ar
     6    17    18   ar
     7    18    19   ar
     8    19    11    1
     9    11     9    1
    10     9     1    1
    11     1     2    1
    12     2     3    1
    13     3     4    1
    14     4    23    1
    15    23    24    1
    16    24    25    1
    17    24    26    1
    18    26    27    1
    19    27    28   ar
    20    28    29    2
    21    28    30   ar
    22    30    31   ar
    23    31    32   ar
    24    32    33   ar
    25    33    34   ar
    26    34    35   ar
    27    35    36    1
    28    35    37   ar
    29    37    38   ar
    30     4     5    1
    31     5     6    1
    32     4     7    1
    33     7     8    1
    34    19    20   ar
    35    20    21   ar
    36    21    22    1
    37    22    13    1
    38    21    16   ar
    39     6     1    1
    40     8     1    1
    41    37    24    1
    42    38    27   ar
    43    38    32   ar
    44     9    10    1
    45    25    39    1
