@<TRIPOS>MOLECULE
*****
 38 42 0 0 0
SMALL
GASTEIGER

@<TRIPOS>ATOM
      1 C         139.6845  140.7138  164.6396 C.2     1  UNL1        0.2352
      2 O         139.0783  140.4627  165.9885 O.2     1  UNL1       -0.2737
      3 N         141.0890  140.2711  164.3543 N.am    1  UNL1       -0.3012
      4 H         141.4869  140.4360  163.4690 H       1  UNL1        0.1497
      5 N         137.7834  141.0101  164.5114 N.3     1  UNL1       -0.3162
      6 C         138.8863  141.4078  163.5760 C.3     1  UNL1        0.1166
      7 C         140.2666  141.5645  163.0098 C.3     1  UNL1        0.0739
      8 C         140.4656  142.2769  161.7050 C.3     1  UNL1        0.2039
      9 N         139.2843  142.8328  160.9662 N.pl3   1  UNL1       -0.1931
     10 C         137.9041  142.6761  161.5323 C.3     1  UNL1        0.2039
     11 C         137.7052  141.9636  162.8372 C.3     1  UNL1        0.0739
     12 H         138.1776  140.5131  165.3102 H       1  UNL1        0.1192
     13 H         137.1262  140.4017  164.0231 H       1  UNL1        0.1192
     14 C         139.4834  143.5453  159.6613 C.2     1  UNL1        0.3205
     15 N         140.0309  144.9417  159.6451 N.2     1  UNL1        0.0097
     16 C         140.2299  145.6542  158.3403 C.2     1  UNL1        0.4717
     17 N         139.8814  144.9703  157.0515 N.2     1  UNL1        0.0158
     18 C         139.3339  143.5739  157.0677 C.2     1  UNL1        0.3714
     19 N         138.9035  142.6519  155.9656 N.2     1  UNL1       -0.0339
     20 C         138.4384  141.3695  156.5894 C.2     1  UNL1        0.2323
     21 C         138.5814  141.4989  158.0770 C.2     1  UNL1        0.0486
     22 C         139.1349  142.8614  158.3726 C.3     1  UNL1        0.2428
     23 C         141.8873  139.5772  165.4179 C.3     1  UNL1        0.0941
     24 C         142.3460  140.3370  166.6271 C.ar    1  UNL1       -0.0045
     25 C         142.8303  141.7497  166.4861 C.ar    1  UNL1       -0.0018
     26 C         143.2890  142.5096  167.6953 C.ar    1  UNL1        0.0111
     27 C         143.2634  141.8567  169.0455 C.ar    1  UNL1        0.0577
     28 CL        143.7222  142.6166  170.2548 Cl      1  UNL1       -0.0822
     29 C         142.7792  140.4441  169.1866 C.ar    1  UNL1        0.0111
     30 C         142.3205  139.6842  167.9774 C.ar    1  UNL1       -0.0018
     31 C         142.2269  138.1233  165.2723 C.3     1  UNL1        0.0256
     32 C         141.2319  137.1778  164.6673 C.3     1  UNL1        0.0194
     33 C         141.1634  137.0130  163.1780 C.3     1  UNL1        0.0722
     34 N         140.0562  137.6624  162.4018 N.3     1  UNL1       -0.2727
     35 C         140.2006  138.3815  161.0934 C.3     1  UNL1        0.0721
     36 C         138.8437  138.8702  160.6808 C.3     1  UNL1        0.0188
     37 C         137.8607  138.4531  161.7343 C.3     1  UNL1        0.0188
     38 C         138.6100  137.7067  162.7979 C.3     1  UNL1        0.0721
@<TRIPOS>BOND
     1     5     6    1
     2     6     1    1
     3     1     2    2
     4     1     3   am
     5     3    23    1
     6    23    31    1
     7    31    32    1
     8    32    33    1
     9    33    34    1
    10    34    35    1
    11    35    36    1
    12    36    37    1
    13    37    38    1
    14    23    24    1
    15    24    25   ar
    16    25    26   ar
    17    26    27   ar
    18    27    28    1
    19    27    29   ar
    20    29    30   ar
    21     6     7    1
    22     7     8    1
    23     8     9    1
    24     9    14    1
    25    14    15    2
    26    15    16    1
    27    16    17    2
    28    17    18    1
    29    18    19    2
    30    19    20    1
    31    20    21    2
    32    21    22    1
    33     9    10    1
    34    10    11    1
    35    11     6    1
    36    38    34    1
    37    30    24   ar
    38    22    14    1
    39    22    18    1
    40     5    12    1
    41     5    13    1
    42     3     4    1
@<TRIPOS>MOLECULE
*****
 38 42 0 0 0
SMALL
GASTEIGER

@<TRIPOS>ATOM
      1 C         141.1486  138.9586  164.0749 C.2     1  UNL1        0.2352
      2 O         140.5259  137.7766  164.7568 O.2     1  UNL1       -0.2737
      3 N         140.6317  140.3401  164.3476 N.am    1  UNL1       -0.3012
      4 H         141.0405  141.1159  163.9001 H       1  UNL1        0.1497
      5 N         142.9746  138.4403  164.4154 N.3     1  UNL1       -0.3162
      6 C         142.2884  138.7593  163.1204 C.3     1  UNL1        0.1166
      7 C         141.2063  139.1475  162.1567 C.3     1  UNL1        0.0739
      8 C         141.5023  139.2257  160.6884 C.3     1  UNL1        0.2039
      9 N         142.8804  138.9156  160.1835 N.pl3   1  UNL1       -0.1931
     10 C         143.9624  138.5273  161.1470 C.3     1  UNL1        0.2039
     11 C         143.6664  138.4492  162.6155 C.3     1  UNL1        0.0739
     12 H         142.3106  138.5338  165.1840 H       1  UNL1        0.1192
     13 H         143.7514  139.0860  164.5567 H       1  UNL1        0.1192
     14 C         143.1763  138.9937  158.7150 C.2     1  UNL1        0.3205
     15 N         142.9316  137.8030  157.8362 N.2     1  UNL1        0.0097
     16 C         143.2276  137.8811  156.3679 C.2     1  UNL1        0.4717
     17 N         143.7683  139.1500  155.7781 N.2     1  UNL1        0.0158
     18 C         144.0130  140.3407  156.6569 C.2     1  UNL1        0.3714
     19 N         144.5357  141.7154  156.3619 N.2     1  UNL1       -0.0339
     20 C         144.5627  142.4868  157.6480 C.2     1  UNL1        0.2323
     21 C         144.0568  141.5890  158.7379 C.2     1  UNL1        0.0486
     22 C         143.7170  140.2626  158.1254 C.3     1  UNL1        0.2428
     23 C         139.4919  140.5395  165.3022 C.3     1  UNL1        0.0941
     24 C         139.7651  140.9163  166.7281 C.ar    1  UNL1       -0.0045
     25 C         140.3610  142.2550  167.0492 C.ar    1  UNL1       -0.0018
     26 C         140.6342  142.6318  168.4751 C.ar    1  UNL1        0.0111
     27 C         140.3114  141.6701  169.5800 C.ar    1  UNL1        0.0577
     28 CL        140.5846  142.0470  171.0060 Cl      1  UNL1       -0.0822
     29 C         139.7155  140.3315  169.2591 C.ar    1  UNL1        0.0111
     30 C         139.4423  139.9546  167.8331 C.ar    1  UNL1       -0.0018
     31 C         138.0790  140.3620  164.8308 C.3     1  UNL1        0.0256
     32 C         137.7324  140.6052  163.3918 C.3     1  UNL1        0.0194
     33 C         137.6335  142.0085  162.8710 C.3     1  UNL1        0.0722
     34 N         138.3043  143.1304  163.6067 N.3     1  UNL1       -0.2727
     35 C         137.7209  143.9099  164.7478 C.3     1  UNL1        0.0721
     36 C         138.7325  144.9310  165.1767 C.3     1  UNL1        0.0188
     37 C         139.9411  144.7827  164.3007 C.3     1  UNL1        0.0188
     38 C         139.6765  143.6699  163.3304 C.3     1  UNL1        0.0721
@<TRIPOS>BOND
     1     5     6    1
     2     6     1    1
     3     1     2    2
     4     1     3   am
     5     3    23    1
     6    23    31    1
     7    31    32    1
     8    32    33    1
     9    33    34    1
    10    34    35    1
    11    35    36    1
    12    36    37    1
    13    37    38    1
    14    23    24    1
    15    24    25   ar
    16    25    26   ar
    17    26    27   ar
    18    27    28    1
    19    27    29   ar
    20    29    30   ar
    21     6     7    1
    22     7     8    1
    23     8     9    1
    24     9    14    1
    25    14    15    2
    26    15    16    1
    27    16    17    2
    28    17    18    1
    29    18    19    2
    30    19    20    1
    31    20    21    2
    32    21    22    1
    33     9    10    1
    34    10    11    1
    35    11     6    1
    36    38    34    1
    37    30    24   ar
    38    22    14    1
    39    22    18    1
    40     5    12    1
    41     5    13    1
    42     3     4    1
@<TRIPOS>MOLECULE
*****
 38 42 0 0 0
SMALL
GASTEIGER

@<TRIPOS>ATOM
      1 C         140.1896  138.4649  162.5019 C.2     1  UNL1        0.2352
      2 O         139.1255  137.4678  162.8531 O.2     1  UNL1       -0.2737
      3 N         140.0973  139.8720  163.0134 N.am    1  UNL1       -0.3012
      4 H         140.7958  140.5264  162.7829 H       1  UNL1        0.1497
      5 N         141.7508  137.4194  162.9361 N.3     1  UNL1       -0.3162
      6 C         141.3462  138.0550  161.6391 C.3     1  UNL1        0.1166
      7 C         140.5400  138.8330  160.6417 C.3     1  UNL1        0.0739
      8 C         141.0308  138.9803  159.2320 C.3     1  UNL1        0.2039
      9 N         142.3279  138.3497  158.8196 N.pl3   1  UNL1       -0.1931
     10 C         143.1341  137.5717  159.8170 C.3     1  UNL1        0.2039
     11 C         142.6432  137.4244  161.2268 C.3     1  UNL1        0.0739
     12 H         141.0438  137.6140  163.6452 H       1  UNL1        0.1192
     13 H         142.6477  137.8010  163.2365 H       1  UNL1        0.1192
     14 C         142.8187  138.4970  157.4099 C.2     1  UNL1        0.3205
     15 N         143.9222  139.4637  157.0971 N.2     1  UNL1        0.0097
     16 C         144.4130  139.6110  155.6874 C.2     1  UNL1        0.4717
     17 N         143.8003  138.7917  154.5903 N.2     1  UNL1        0.0158
     18 C         142.6968  137.8251  154.9031 C.2     1  UNL1        0.3714
     19 N         141.9061  136.8900  154.0369 N.2     1  UNL1       -0.0339
     20 C         140.9266  136.1647  154.9113 C.2     1  UNL1        0.2323
     21 C         141.1120  136.6515  156.3179 C.2     1  UNL1        0.0486
     22 C         142.2060  137.6777  156.3129 C.3     1  UNL1        0.2428
     23 C         138.9408  140.2819  163.8762 C.3     1  UNL1        0.0941
     24 C         139.0715  140.2509  165.3701 C.ar    1  UNL1       -0.0045
     25 C         138.2708  139.2688  166.1728 C.ar    1  UNL1       -0.0018
     26 C         138.4015  139.2377  167.6668 C.ar    1  UNL1        0.0111
     27 C         139.3330  140.1888  168.3580 C.ar    1  UNL1        0.0577
     28 CL        139.4637  140.1578  169.8520 Cl      1  UNL1       -0.0822
     29 C         140.1337  141.1709  167.5554 C.ar    1  UNL1        0.0111
     30 C         140.0030  141.2020  166.0613 C.ar    1  UNL1       -0.0018
     31 C         137.6535  140.7230  163.2449 C.3     1  UNL1        0.0256
     32 C         137.6679  141.4006  161.9067 C.3     1  UNL1        0.0194
     33 C         138.0382  142.8506  161.8043 C.3     1  UNL1        0.0722
     34 N         138.6071  143.5651  162.9941 N.3     1  UNL1       -0.2727
     35 C         140.0611  143.8281  163.2526 C.3     1  UNL1        0.0721
     36 C         140.1744  144.5677  164.5527 C.3     1  UNL1        0.0188
     37 C         138.7905  144.7618  165.0978 C.3     1  UNL1        0.0188
     38 C         137.8219  144.1422  164.1346 C.3     1  UNL1        0.0721
@<TRIPOS>BOND
     1     5     6    1
     2     6     1    1
     3     1     2    2
     4     1     3   am
     5     3    23    1
     6    23    31    1
     7    31    32    1
     8    32    33    1
     9    33    34    1
    10    34    35    1
    11    35    36    1
    12    36    37    1
    13    37    38    1
    14    23    24    1
    15    24    25   ar
    16    25    26   ar
    17    26    27   ar
    18    27    28    1
    19    27    29   ar
    20    29    30   ar
    21     6     7    1
    22     7     8    1
    23     8     9    1
    24     9    14    1
    25    14    15    2
    26    15    16    1
    27    16    17    2
    28    17    18    1
    29    18    19    2
    30    19    20    1
    31    20    21    2
    32    21    22    1
    33     9    10    1
    34    10    11    1
    35    11     6    1
    36    38    34    1
    37    30    24   ar
    38    22    14    1
    39    22    18    1
    40     5    12    1
    41     5    13    1
    42     3     4    1
@<TRIPOS>MOLECULE
*****
 38 42 0 0 0
SMALL
GASTEIGER

@<TRIPOS>ATOM
      1 C         140.4426  140.9187  164.4474 C.2     1  UNL1        0.2352
      2 O         139.9229  139.7935  165.2924 O.2     1  UNL1       -0.2737
      3 N         141.8999  141.2723  164.4831 N.am    1  UNL1       -0.3012
      4 H         142.2410  142.0108  163.9286 H       1  UNL1        0.1497
      5 N         138.7880  141.8103  164.8787 N.3     1  UNL1       -0.3162
      6 C         139.5051  141.6903  163.5667 C.3     1  UNL1        0.1166
      7 C         140.5478  141.3024  162.5605 C.3     1  UNL1        0.0739
      8 C         140.4040  141.7277  161.1294 C.3     1  UNL1        0.2039
      9 N         139.2174  142.5410  160.7043 N.pl3   1  UNL1       -0.1931
     10 C         138.1747  142.9289  161.7103 C.3     1  UNL1        0.2039
     11 C         138.3186  142.5036  163.1416 C.3     1  UNL1        0.0739
     12 H         139.3168  141.3216  165.6011 H       1  UNL1        0.1192
     13 H         137.8596  141.3957  164.7978 H       1  UNL1        0.1192
     14 C         139.0736  142.9663  159.2730 C.2     1  UNL1        0.3205
     15 N         138.0327  142.3279  158.4018 N.2     1  UNL1        0.0097
     16 C         137.8889  142.7531  156.9707 C.2     1  UNL1        0.4717
     17 N         138.7860  143.8169  156.4105 N.2     1  UNL1        0.0158
     18 C         139.8269  144.4554  157.2817 C.2     1  UNL1        0.3714
     19 N         140.8465  145.5215  157.0102 N.2     1  UNL1       -0.0339
     20 C         141.6205  145.7550  158.2737 C.2     1  UNL1        0.2323
     21 C         141.0792  144.8333  159.3260 C.2     1  UNL1        0.0486
     22 C         139.9707  144.0300  158.7129 C.3     1  UNL1        0.2428
     23 C         142.8375  140.5007  165.3638 C.3     1  UNL1        0.0941
     24 C         142.7100  140.5905  166.8557 C.ar    1  UNL1       -0.0045
     25 C         142.6040  139.3392  167.6760 C.ar    1  UNL1       -0.0018
     26 C         142.4765  139.4290  169.1679 C.ar    1  UNL1        0.0111
     27 C         142.4549  140.7701  169.8394 C.ar    1  UNL1        0.0577
     28 CL        142.3274  140.8599  171.3313 Cl      1  UNL1       -0.0822
     29 C         142.5609  142.0214  169.0191 C.ar    1  UNL1        0.0111
     30 C         142.6885  141.9317  167.5272 C.ar    1  UNL1       -0.0018
     31 C         143.9027  139.6394  164.7526 C.3     1  UNL1        0.0256
     32 C         144.7317  140.1638  163.6178 C.3     1  UNL1        0.0194
     33 C         145.4584  141.4683  163.7602 C.3     1  UNL1        0.0722
     34 N         144.7099  142.7617  163.6310 N.3     1  UNL1       -0.2727
     35 C         144.1113  143.3119  162.3705 C.3     1  UNL1        0.0721
     36 C         143.4599  144.6223  162.7001 C.3     1  UNL1        0.0188
     37 C         143.6560  144.8820  164.1645 C.3     1  UNL1        0.0188
     38 C         144.4285  143.7321  164.7397 C.3     1  UNL1        0.0721
@<TRIPOS>BOND
     1     5     6    1
     2     6     1    1
     3     1     2    2
     4     1     3   am
     5     3    23    1
     6    23    31    1
     7    31    32    1
     8    32    33    1
     9    33    34    1
    10    34    35    1
    11    35    36    1
    12    36    37    1
    13    37    38    1
    14    23    24    1
    15    24    25   ar
    16    25    26   ar
    17    26    27   ar
    18    27    28    1
    19    27    29   ar
    20    29    30   ar
    21     6     7    1
    22     7     8    1
    23     8     9    1
    24     9    14    1
    25    14    15    2
    26    15    16    1
    27    16    17    2
    28    17    18    1
    29    18    19    2
    30    19    20    1
    31    20    21    2
    32    21    22    1
    33     9    10    1
    34    10    11    1
    35    11     6    1
    36    38    34    1
    37    30    24   ar
    38    22    14    1
    39    22    18    1
    40     5    12    1
    41     5    13    1
    42     3     4    1
@<TRIPOS>MOLECULE
*****
 38 42 0 0 0
SMALL
GASTEIGER

@<TRIPOS>ATOM
      1 C         143.5936  140.0131  163.9935 C.2     1  UNL1        0.2352
      2 O         144.5722  139.0394  164.5803 O.2     1  UNL1       -0.2737
      3 N         142.1553  139.9789  164.4182 N.am    1  UNL1       -0.3012
      4 H         141.5130  140.6180  164.0331 H       1  UNL1        0.1497
      5 N         145.3791  140.5495  163.5008 N.3     1  UNL1       -0.3162
      6 C         144.0531  141.0209  162.9820 C.3     1  UNL1        0.1166
      7 C         142.5673  141.1424  162.8145 C.3     1  UNL1        0.0739
      8 C         142.0017  142.1079  161.8157 C.3     1  UNL1        0.2039
      9 N         142.9217  142.9521  160.9843 N.pl3   1  UNL1       -0.1931
     10 C         144.4074  142.8307  161.1518 C.3     1  UNL1        0.2039
     11 C         144.9730  141.8651  162.1507 C.3     1  UNL1        0.0739
     12 H         145.2307  139.8398  164.2183 H       1  UNL1        0.1192
     13 H         145.8869  141.3378  163.9023 H       1  UNL1        0.1192
     14 C         142.3560  143.9176  159.9855 C.2     1  UNL1        0.3205
     15 N         142.8674  143.9237  158.5754 N.2     1  UNL1        0.0097
     16 C         142.3018  144.8892  157.5766 C.2     1  UNL1        0.4717
     17 N         141.2246  145.8488  157.9878 N.2     1  UNL1        0.0158
     18 C         140.7131  145.8427  159.3979 C.2     1  UNL1        0.3714
     19 N         139.6660  146.6646  160.0893 N.2     1  UNL1       -0.0339
     20 C         139.5846  146.2070  161.5154 C.2     1  UNL1        0.2323
     21 C         140.5813  145.1023  161.7055 C.2     1  UNL1        0.0486
     22 C         141.2788  144.8771  160.3967 C.3     1  UNL1        0.2428
     23 C         141.6957  138.9711  165.4297 C.3     1  UNL1        0.0941
     24 C         141.5215  139.3738  166.8640 C.ar    1  UNL1       -0.0045
     25 C         140.1805  139.8303  167.3573 C.ar    1  UNL1       -0.0018
     26 C         140.0064  140.2331  168.7917 C.ar    1  UNL1        0.0111
     27 C         141.1732  140.1792  169.7328 C.ar    1  UNL1        0.0577
     28 CL        140.9990  140.5820  171.1672 Cl      1  UNL1       -0.0822
     29 C         142.5142  139.7227  169.2395 C.ar    1  UNL1        0.0111
     30 C         142.6884  139.3200  167.8051 C.ar    1  UNL1       -0.0018
     31 C         141.4103  137.5605  165.0067 C.3     1  UNL1        0.0256
     32 C         140.5862  137.2971  163.7813 C.3     1  UNL1        0.0194
     33 C         139.1053  137.5346  163.8082 C.3     1  UNL1        0.0722
     34 N         138.5490  138.8529  163.3585 N.3     1  UNL1       -0.2727
     35 C         138.1494  139.2096  161.9573 C.3     1  UNL1        0.0721
     36 C         137.6480  140.6233  161.9639 C.3     1  UNL1        0.0188
     37 C         137.7376  141.1404  163.3692 C.3     1  UNL1        0.0188
     38 C         138.2944  140.0463  164.2310 C.3     1  UNL1        0.0721
@<TRIPOS>BOND
     1     5     6    1
     2     6     1    1
     3     1     2    2
     4     1     3   am
     5     3    23    1
     6    23    31    1
     7    31    32    1
     8    32    33    1
     9    33    34    1
    10    34    35    1
    11    35    36    1
    12    36    37    1
    13    37    38    1
    14    23    24    1
    15    24    25   ar
    16    25    26   ar
    17    26    27   ar
    18    27    28    1
    19    27    29   ar
    20    29    30   ar
    21     6     7    1
    22     7     8    1
    23     8     9    1
    24     9    14    1
    25    14    15    2
    26    15    16    1
    27    16    17    2
    28    17    18    1
    29    18    19    2
    30    19    20    1
    31    20    21    2
    32    21    22    1
    33     9    10    1
    34    10    11    1
    35    11     6    1
    36    38    34    1
    37    30    24   ar
    38    22    14    1
    39    22    18    1
    40     5    12    1
    41     5    13    1
    42     3     4    1
@<TRIPOS>MOLECULE
*****
 38 42 0 0 0
SMALL
GASTEIGER

@<TRIPOS>ATOM
      1 C         141.2602  138.4375  164.0825 C.2     1  UNL1        0.2352
      2 O         141.7299  137.2197  164.8216 O.2     1  UNL1       -0.2737
      3 N         141.8964  139.7692  164.3502 N.am    1  UNL1       -0.3012
      4 H         141.5881  140.5685  163.8651 H       1  UNL1        0.1497
      5 N         139.4271  137.8846  164.3120 N.3     1  UNL1       -0.3162
      6 C         140.1542  138.3237  163.0757 C.3     1  UNL1        0.1166
      7 C         141.2654  138.8023  162.1890 C.3     1  UNL1        0.0739
      8 C         141.0181  139.0147  160.7249 C.3     1  UNL1        0.2039
      9 N         139.6595  138.7483  160.1474 N.pl3   1  UNL1       -0.1931
     10 C         138.5483  138.2697  161.0340 C.3     1  UNL1        0.2039
     11 C         138.7957  138.0574  162.4981 C.3     1  UNL1        0.0739
     12 H         140.0644  137.9087  165.1079 H       1  UNL1        0.1192
     13 H         139.0802  136.9341  164.1829 H       1  UNL1        0.1192
     14 C         139.4123  138.9607  158.6832 C.2     1  UNL1        0.3205
     15 N         139.6954  137.8576  157.7070 N.2     1  UNL1        0.0097
     16 C         139.4482  138.0699  156.2429 C.2     1  UNL1        0.4717
     17 N         138.9178  139.3854  155.7548 N.2     1  UNL1        0.0158
     18 C         138.6346  140.4885  156.7310 C.2     1  UNL1        0.3714
     19 N         138.1115  141.8822  156.5466 N.2     1  UNL1       -0.0339
     20 C         138.0354  142.5312  157.8968 C.2     1  UNL1        0.2323
     21 C         138.5115  141.5386  158.9157 C.2     1  UNL1        0.0486
     22 C         138.8819  140.2762  158.1952 C.3     1  UNL1        0.2428
     23 C         143.0025  139.8831  165.3571 C.3     1  UNL1        0.0941
     24 C         142.6912  140.2693  166.7727 C.ar    1  UNL1       -0.0045
     25 C         142.7119  139.2310  167.8552 C.ar    1  UNL1       -0.0018
     26 C         142.4007  139.6172  169.2708 C.ar    1  UNL1        0.0111
     27 C         142.0687  141.0415  169.6039 C.ar    1  UNL1        0.0577
     28 CL        141.7574  141.4277  171.0196 Cl      1  UNL1       -0.0822
     29 C         142.0479  142.0798  168.5215 C.ar    1  UNL1        0.0111
     30 C         142.3592  141.6936  167.1058 C.ar    1  UNL1       -0.0018
     31 C         144.4198  139.6109  164.9483 C.3     1  UNL1        0.0256
     32 C         144.9293  140.1119  163.6294 C.3     1  UNL1        0.0194
     33 C         145.6779  141.4098  163.5586 C.3     1  UNL1        0.0722
     34 N         144.9300  142.7096  163.5942 N.3     1  UNL1       -0.2727
     35 C         144.4774  143.4994  162.4020 C.3     1  UNL1        0.0721
     36 C         143.7711  144.7258  162.8994 C.3     1  UNL1        0.0188
     37 C         143.7873  144.6939  164.3990 C.3     1  UNL1        0.0188
     38 C         144.5035  143.4479  164.8284 C.3     1  UNL1        0.0721
@<TRIPOS>BOND
     1     5     6    1
     2     6     1    1
     3     1     2    2
     4     1     3   am
     5     3    23    1
     6    23    31    1
     7    31    32    1
     8    32    33    1
     9    33    34    1
    10    34    35    1
    11    35    36    1
    12    36    37    1
    13    37    38    1
    14    23    24    1
    15    24    25   ar
    16    25    26   ar
    17    26    27   ar
    18    27    28    1
    19    27    29   ar
    20    29    30   ar
    21     6     7    1
    22     7     8    1
    23     8     9    1
    24     9    14    1
    25    14    15    2
    26    15    16    1
    27    16    17    2
    28    17    18    1
    29    18    19    2
    30    19    20    1
    31    20    21    2
    32    21    22    1
    33     9    10    1
    34    10    11    1
    35    11     6    1
    36    38    34    1
    37    30    24   ar
    38    22    14    1
    39    22    18    1
    40     5    12    1
    41     5    13    1
    42     3     4    1
@<TRIPOS>MOLECULE
*****
 38 42 0 0 0
SMALL
GASTEIGER

@<TRIPOS>ATOM
      1 C         141.4504  143.6452  163.1350 C.2     1  UNL1        0.2352
      2 O         141.0174  145.0638  162.9110 O.2     1  UNL1       -0.2737
      3 N         140.9882  142.5639  162.2038 N.am    1  UNL1       -0.3012
      4 H         141.2724  141.6329  162.3509 H       1  UNL1        0.1497
      5 N         143.3478  143.9121  163.3520 N.3     1  UNL1       -0.3162
      6 C         142.3456  143.3079  164.2903 C.3     1  UNL1        0.1166
      7 C         141.0325  142.8208  164.8274 C.3     1  UNL1        0.0739
      8 C         140.9626  142.2062  166.1939 C.3     1  UNL1        0.2039
      9 N         142.2060  142.0786  167.0234 N.pl3   1  UNL1       -0.1931
     10 C         143.5191  142.5657  166.4863 C.3     1  UNL1        0.2039
     11 C         143.5889  143.1803  165.1198 C.3     1  UNL1        0.0739
     12 H         142.8789  144.2004  162.4933 H       1  UNL1        0.1192
     13 H         144.0664  143.2225  163.1320 H       1  UNL1        0.1192
     14 C         142.1361  141.4640  168.3899 C.2     1  UNL1        0.3205
     15 N         142.9226  140.2238  168.6956 N.2     1  UNL1        0.0097
     16 C         142.8527  139.6092  170.0620 C.2     1  UNL1        0.4717
     17 N         141.9964  140.2347  171.1229 N.2     1  UNL1        0.0158
     18 C         141.2099  141.4748  170.8172 C.2     1  UNL1        0.3714
     19 N         140.2862  142.3093  171.6542 N.2     1  UNL1       -0.0339
     20 C         139.7852  143.4397  170.8049 C.2     1  UNL1        0.2323
     21 C         140.3992  143.3038  169.4431 C.2     1  UNL1        0.0486
     22 C         141.2797  142.0895  169.4507 C.3     1  UNL1        0.2428
     23 C         140.0928  142.9012  161.0485 C.3     1  UNL1        0.0941
     24 C         140.6826  143.4071  159.7654 C.ar    1  UNL1       -0.0045
     25 C         139.7905  143.9817  158.7052 C.ar    1  UNL1       -0.0018
     26 C         140.3802  144.4876  157.4221 C.ar    1  UNL1        0.0111
     27 C         141.8620  144.4189  157.1993 C.ar    1  UNL1        0.0577
     28 CL        142.4517  144.9248  155.9161 Cl      1  UNL1       -0.0822
     29 C         142.7541  143.8443  158.2595 C.ar    1  UNL1        0.0111
     30 C         142.1644  143.3384  159.5426 C.ar    1  UNL1       -0.0018
     31 C         138.6078  142.7327  161.1763 C.3     1  UNL1        0.0256
     32 C         137.9749  142.6651  162.5346 C.3     1  UNL1        0.0194
     33 C         137.1787  141.4574  162.9318 C.3     1  UNL1        0.0722
     34 N         137.8804  140.1800  163.2863 N.3     1  UNL1       -0.2727
     35 C         138.1244  139.0226  162.3639 C.3     1  UNL1        0.0721
     36 C         138.8562  137.9630  163.1332 C.3     1  UNL1        0.0188
     37 C         139.0645  138.4655  164.5311 C.3     1  UNL1        0.0188
     38 C         138.4614  139.8357  164.6257 C.3     1  UNL1        0.0721
@<TRIPOS>BOND
     1     5     6    1
     2     6     1    1
     3     1     2    2
     4     1     3   am
     5     3    23    1
     6    23    31    1
     7    31    32    1
     8    32    33    1
     9    33    34    1
    10    34    35    1
    11    35    36    1
    12    36    37    1
    13    37    38    1
    14    23    24    1
    15    24    25   ar
    16    25    26   ar
    17    26    27   ar
    18    27    28    1
    19    27    29   ar
    20    29    30   ar
    21     6     7    1
    22     7     8    1
    23     8     9    1
    24     9    14    1
    25    14    15    2
    26    15    16    1
    27    16    17    2
    28    17    18    1
    29    18    19    2
    30    19    20    1
    31    20    21    2
    32    21    22    1
    33     9    10    1
    34    10    11    1
    35    11     6    1
    36    38    34    1
    37    30    24   ar
    38    22    14    1
    39    22    18    1
    40     5    12    1
    41     5    13    1
    42     3     4    1
@<TRIPOS>MOLECULE
*****
 38 42 0 0 0
SMALL
GASTEIGER

@<TRIPOS>ATOM
      1 C         142.4266  140.0679  162.6123 C.2     1  UNL1        0.2352
      2 O         143.5934  140.6771  161.8931 O.2     1  UNL1       -0.2737
      3 N         141.1156  139.8957  161.9040 N.am    1  UNL1       -0.3012
      4 H         140.3498  139.4959  162.3761 H       1  UNL1        0.1497
      5 N         143.5824  138.7344  163.3899 N.3     1  UNL1       -0.3162
      6 C         142.5706  139.6307  164.0400 C.3     1  UNL1        0.1166
      7 C         141.5087  140.6789  164.1943 C.3     1  UNL1        0.0739
      8 C         140.9422  140.9787  165.5504 C.3     1  UNL1        0.2039
      9 N         141.4376  140.2302  166.7524 N.pl3   1  UNL1       -0.1931
     10 C         142.4995  139.1821  166.5981 C.3     1  UNL1        0.2039
     11 C         143.0659  138.8823  165.2418 C.3     1  UNL1        0.0739
     12 H         143.6036  138.9171  162.3866 H       1  UNL1        0.1192
     13 H         143.3280  137.7601  163.5527 H       1  UNL1        0.1192
     14 C         140.8711  140.5300  168.1086 C.2     1  UNL1        0.3205
     15 N         139.5493  139.9486  168.5145 N.2     1  UNL1        0.0097
     16 C         138.9828  140.2484  169.8706 C.2     1  UNL1        0.4717
     17 N         139.7381  141.1296  170.8209 N.2     1  UNL1        0.0158
     18 C         141.0599  141.7110  170.4150 C.2     1  UNL1        0.3714
     19 N         142.0253  142.6068  171.1330 N.2     1  UNL1       -0.0339
     20 C         143.1885  142.8606  170.2206 C.2     1  UNL1        0.2323
     21 C         142.9420  142.1217  168.9387 C.2     1  UNL1        0.0486
     22 C         141.6264  141.4112  169.0588 C.3     1  UNL1        0.2428
     23 C         140.9715  140.3329  160.4763 C.3     1  UNL1        0.0941
     24 C         141.0749  139.3258  159.3695 C.ar    1  UNL1       -0.0045
     25 C         139.8580  138.9597  158.5725 C.ar    1  UNL1       -0.0018
     26 C         139.9614  137.9526  157.4657 C.ar    1  UNL1        0.0111
     27 C         141.2817  137.3116  157.1559 C.ar    1  UNL1        0.0577
     28 CL        141.3851  136.3044  156.0491 Cl      1  UNL1       -0.0822
     29 C         142.4986  137.6776  157.9529 C.ar    1  UNL1        0.0111
     30 C         142.3952  138.6847  159.0598 C.ar    1  UNL1       -0.0018
     31 C         140.7240  141.7771  160.1555 C.3     1  UNL1        0.0256
     32 C         139.3268  142.2601  159.9008 C.3     1  UNL1        0.0194
     33 C         138.2041  141.8088  160.7873 C.3     1  UNL1        0.0722
     34 N         138.0553  142.3882  162.1628 N.3     1  UNL1       -0.2727
     35 C         138.2407  143.8288  162.5375 C.3     1  UNL1        0.0721
     36 C         137.9950  143.9597  164.0115 C.3     1  UNL1        0.0188
     37 C         137.6578  142.6000  164.5478 C.3     1  UNL1        0.0188
     38 C         137.6951  141.6288  163.4052 C.3     1  UNL1        0.0721
@<TRIPOS>BOND
     1     5     6    1
     2     6     1    1
     3     1     2    2
     4     1     3   am
     5     3    23    1
     6    23    31    1
     7    31    32    1
     8    32    33    1
     9    33    34    1
    10    34    35    1
    11    35    36    1
    12    36    37    1
    13    37    38    1
    14    23    24    1
    15    24    25   ar
    16    25    26   ar
    17    26    27   ar
    18    27    28    1
    19    27    29   ar
    20    29    30   ar
    21     6     7    1
    22     7     8    1
    23     8     9    1
    24     9    14    1
    25    14    15    2
    26    15    16    1
    27    16    17    2
    28    17    18    1
    29    18    19    2
    30    19    20    1
    31    20    21    2
    32    21    22    1
    33     9    10    1
    34    10    11    1
    35    11     6    1
    36    38    34    1
    37    30    24   ar
    38    22    14    1
    39    22    18    1
    40     5    12    1
    41     5    13    1
    42     3     4    1
@<TRIPOS>MOLECULE
*****
 38 42 0 0 0
SMALL
GASTEIGER

@<TRIPOS>ATOM
      1 C         143.3760  141.4287  162.9278 C.2     1  UNL1        0.2352
      2 O         144.7512  141.9507  162.6342 O.2     1  UNL1       -0.2737
      3 N         142.2417  141.7378  161.9962 N.am    1  UNL1       -0.3012
      4 H         141.3391  141.3952  162.1889 H       1  UNL1        0.1497
      5 N         143.9601  139.6393  163.3466 N.3     1  UNL1       -0.3162
      6 C         143.1348  140.5977  164.1530 C.3     1  UNL1        0.1166
      7 C         142.3933  141.8448  164.5340 C.3     1  UNL1        0.0739
      8 C         141.6973  141.9280  165.8601 C.3     1  UNL1        0.2039
      9 N         141.7427  140.7641  166.8053 N.pl3   1  UNL1       -0.1931
     10 C         142.4842  139.5170  166.4244 C.3     1  UNL1        0.2039
     11 C         143.1803  139.4339  165.0982 C.3     1  UNL1        0.0739
     12 H         144.2108  140.0714  162.4573 H       1  UNL1        0.1192
     13 H         143.4220  138.7905  163.1725 H       1  UNL1        0.1192
     14 C         141.0467  140.8473  168.1314 C.2     1  UNL1        0.3205
     15 N         139.7433  140.1348  168.3404 N.2     1  UNL1        0.0097
     16 C         139.0473  140.2180  169.6664 C.2     1  UNL1        0.4717
     17 N         139.6546  141.0137  170.7837 N.2     1  UNL1        0.0158
     18 C         140.9579  141.7262  170.5747 C.2     1  UNL1        0.3714
     19 N         141.7919  142.5800  171.4833 N.2     1  UNL1       -0.0339
     20 C         143.0034  143.0244  170.7187 C.2     1  UNL1        0.2323
     21 C         142.9182  142.4453  169.3376 C.2     1  UNL1        0.0486
     22 C         141.6540  141.6429  169.2486 C.3     1  UNL1        0.2428
     23 C         142.4827  142.5688  160.7709 C.3     1  UNL1        0.0941
     24 C         143.1479  141.9613  159.5715 C.ar    1  UNL1       -0.0045
     25 C         142.9244  140.5151  159.2422 C.ar    1  UNL1       -0.0018
     26 C         143.5896  139.9075  158.0428 C.ar    1  UNL1        0.0111
     27 C         144.4782  140.7463  157.1728 C.ar    1  UNL1        0.0577
     28 CL        145.1434  140.1387  155.9734 Cl      1  UNL1       -0.0822
     29 C         144.7017  142.1925  157.5021 C.ar    1  UNL1        0.0111
     30 C         144.0365  142.8001  158.7015 C.ar    1  UNL1       -0.0018
     31 C         142.0586  144.0074  160.7450 C.3     1  UNL1        0.0256
     32 C         141.9176  144.7709  162.0284 C.3     1  UNL1        0.0194
     33 C         140.6183  145.4416  162.3633 C.3     1  UNL1        0.0722
     34 N         139.5131  144.6570  163.0057 N.3     1  UNL1       -0.2727
     35 C         138.6355  143.6494  162.3241 C.3     1  UNL1        0.0721
     36 C         137.6714  143.1119  163.3399 C.3     1  UNL1        0.0188
     37 C         137.9533  143.7872  164.6493 C.3     1  UNL1        0.0188
     38 C         139.0914  144.7421  164.4428 C.3     1  UNL1        0.0721
@<TRIPOS>BOND
     1     5     6    1
     2     6     1    1
     3     1     2    2
     4     1     3   am
     5     3    23    1
     6    23    31    1
     7    31    32    1
     8    32    33    1
     9    33    34    1
    10    34    35    1
    11    35    36    1
    12    36    37    1
    13    37    38    1
    14    23    24    1
    15    24    25   ar
    16    25    26   ar
    17    26    27   ar
    18    27    28    1
    19    27    29   ar
    20    29    30   ar
    21     6     7    1
    22     7     8    1
    23     8     9    1
    24     9    14    1
    25    14    15    2
    26    15    16    1
    27    16    17    2
    28    17    18    1
    29    18    19    2
    30    19    20    1
    31    20    21    2
    32    21    22    1
    33     9    10    1
    34    10    11    1
    35    11     6    1
    36    38    34    1
    37    30    24   ar
    38    22    14    1
    39    22    18    1
    40     5    12    1
    41     5    13    1
    42     3     4    1
