@<TRIPOS>MOLECULE
*****
 45 47 0 0 0
SMALL
GASTEIGER

@<TRIPOS>ATOM
      1 C         141.2224  141.1660  165.8901 C.3     1  UNL1        0.0988
      2 C         142.5869  141.3192  165.2861 C.ar    1  UNL1       -0.0020
      3 C         143.2628  140.1401  164.6512 C.ar    1  UNL1       -0.0001
      4 C         144.6272  140.2933  164.0472 C.ar    1  UNL1        0.0294
      5 C         145.3158  141.6255  164.0780 C.ar    1  UNL1        0.1401
      6 F         146.6803  141.7787  163.4740 F       1  UNL1       -0.2042
      7 C         144.6399  142.8046  164.7129 C.ar    1  UNL1        0.0294
      8 C         143.2755  142.6514  165.3169 C.ar    1  UNL1       -0.0001
      9 C         141.8437  140.9452  167.2374 C.ar    1  UNL1        0.0000
     10 C         142.0817  139.5499  167.7339 C.ar    1  UNL1        0.0272
     11 C         142.7030  139.3291  169.0813 C.ar    1  UNL1        0.1398
     12 F         142.9411  137.9338  169.5778 F       1  UNL1       -0.2042
     13 C         143.0862  140.5035  169.9320 C.ar    1  UNL1        0.0335
     14 C         142.8482  141.8988  169.4355 C.ar    1  UNL1        0.0734
     15 C         142.2269  142.1196  168.0882 C.ar    1  UNL1        0.0016
     16 C         143.2314  143.0733  170.2863 C.3     1  UNL1        0.4186
     17 F         143.6147  144.2476  171.1371 F       1  UNL1       -0.1659
     18 F         141.8036  143.5330  170.2948 F       1  UNL1       -0.1659
     19 F         144.6592  142.6135  170.2778 F       1  UNL1       -0.1659
     20 C         140.0085  142.7215  164.1998 C.2     1  UNL1        0.2401
     21 O         139.9332  143.4113  164.5922 O.2     1  UNL1       -0.2736
     22 N         140.6012  141.3869  164.5428 N.am    1  UNL1       -0.2991
     23 H         140.5824  140.6559  163.8836 H       1  UNL1        0.1500
     24 C         139.3873  142.9423  162.8525 C.3     1  UNL1        0.1731
     25 C         137.3601  141.4667  163.5331 C.3     1  UNL1        0.0863
     26 N         138.1107  142.2423  162.4914 N.3     1  UNL1       -0.2878
     27 H         137.4729  142.9562  162.1393 H       1  UNL1        0.1238
     28 C         140.0426  143.8632  161.8663 C.3     1  UNL1        0.2851
     29 O         138.8735  144.7982  161.9625 O.3     1  UNL1       -0.3715
     30 H         138.2220  144.4383  162.5845 H       1  UNL1        0.2109
     31 C         140.6978  144.7841  160.8801 C.3     1  UNL1        0.4292
     32 F         141.3530  145.7050  159.8939 F       1  UNL1       -0.1672
     33 F         140.6001  145.9100  161.8664 F       1  UNL1       -0.1672
     34 F         140.8746  143.7789  159.7809 F       1  UNL1       -0.1672
     35 C         141.2116  142.9284  161.7700 C.3     1  UNL1        0.4292
     36 F         142.3807  141.9934  161.6738 F       1  UNL1       -0.1672
     37 F         142.2436  143.8690  162.3177 F       1  UNL1       -0.1672
     38 F         140.6249  141.6711  161.1998 F       1  UNL1       -0.1672
     39 C         139.8580  141.0128  166.4941 C.3     1  UNL1        0.0528
     40 C         139.1488  139.6931  166.4198 C.ar    1  UNL1       -0.0199
     41 C         138.0768  139.3607  167.4150 C.ar    1  UNL1       -0.0042
     42 C         137.3676  138.0411  167.3406 C.ar    1  UNL1       -0.0003
     43 C         137.7303  137.0539  166.2711 C.ar    1  UNL1       -0.0000
     44 C         138.8022  137.3863  165.2759 C.ar    1  UNL1       -0.0003
     45 C         139.5114  138.7059  165.3503 C.ar    1  UNL1       -0.0042
@<TRIPOS>BOND
     1    25    26    1
     2    26    24    1
     3    24    20    1
     4    20    21    2
     5    20    22   am
     6    22     1    1
     7     1    39    1
     8    39    40    1
     9    40    41   ar
    10    41    42   ar
    11    42    43   ar
    12    43    44   ar
    13    44    45   ar
    14     1     2    1
    15     2     3   ar
    16     3     4   ar
    17     4     5   ar
    18     5     6    1
    19     5     7   ar
    20     7     8   ar
    21     1     9    1
    22     9    10   ar
    23    10    11   ar
    24    11    12    1
    25    11    13   ar
    26    13    14   ar
    27    14    16    1
    28    16    17    1
    29    16    18    1
    30    16    19    1
    31    14    15   ar
    32    24    28    1
    33    28    29    1
    34    28    31    1
    35    31    32    1
    36    31    33    1
    37    31    34    1
    38    28    35    1
    39    35    36    1
    40    35    37    1
    41    35    38    1
    42    45    40   ar
    43     8     2   ar
    44    15     9   ar
    45    26    27    1
    46    22    23    1
    47    29    30    1
@<TRIPOS>MOLECULE
*****
 45 47 0 0 0
SMALL
GASTEIGER

@<TRIPOS>ATOM
      1 C         141.0316  141.2759  165.8056 C.3     1  UNL1        0.0988
      2 C         140.0676  140.1551  166.0598 C.ar    1  UNL1       -0.0020
      3 C         139.1552  140.2060  167.2493 C.ar    1  UNL1       -0.0001
      4 C         138.1912  139.0853  167.5036 C.ar    1  UNL1        0.0294
      5 C         138.1397  137.9136  166.5684 C.ar    1  UNL1        0.1401
      6 F         137.1757  136.7928  166.8227 F       1  UNL1       -0.2042
      7 C         139.0521  137.8627  165.3789 C.ar    1  UNL1        0.0294
      8 C         140.0161  138.9835  165.1246 C.ar    1  UNL1       -0.0001
      9 C         141.6824  141.0170  167.1320 C.ar    1  UNL1        0.0000
     10 C         141.9792  139.6103  167.5599 C.ar    1  UNL1        0.0272
     11 C         142.6300  139.3514  168.8864 C.ar    1  UNL1        0.1398
     12 F         142.9268  137.9447  169.3144 F       1  UNL1       -0.2042
     13 C         142.9841  140.4992  169.7848 C.ar    1  UNL1        0.0335
     14 C         142.6873  141.9059  169.3569 C.ar    1  UNL1        0.0734
     15 C         142.0365  142.1648  168.0305 C.ar    1  UNL1        0.0016
     16 C         143.0414  143.0537  170.2554 C.3     1  UNL1        0.4186
     17 F         143.3955  144.2014  171.1538 F       1  UNL1       -0.1659
     18 F         141.5968  143.4534  170.3141 F       1  UNL1       -0.1659
     19 F         144.4859  142.6539  170.1967 F       1  UNL1       -0.1659
     20 C         139.2274  142.4890  164.3832 C.2     1  UNL1        0.2401
     21 O         138.8343  142.9377  164.9121 O.2     1  UNL1       -0.2736
     22 N         140.3808  141.5348  164.4792 N.am    1  UNL1       -0.2991
     23 H         140.7107  141.0785  163.6716 H       1  UNL1        0.1500
     24 C         138.5766  142.7480  163.0568 C.3     1  UNL1        0.1731
     25 C         137.6237  140.3550  162.7161 C.3     1  UNL1        0.0863
     26 N         137.4869  141.8413  162.5663 N.3     1  UNL1       -0.2878
     27 H         136.6358  142.1100  163.0601 H       1  UNL1        0.1238
     28 C         139.0155  143.9136  162.2208 C.3     1  UNL1        0.2851
     29 O         137.7219  144.6130  162.5169 O.3     1  UNL1       -0.3715
     30 H         137.1755  144.0531  163.0904 H       1  UNL1        0.2109
     31 C         139.4543  145.0791  161.3849 C.3     1  UNL1        0.4292
     32 F         139.8931  146.2447  160.5489 F       1  UNL1       -0.1672
     33 F         139.2607  145.9935  162.5581 F       1  UNL1       -0.1672
     34 F         139.6999  144.3137  160.1185 F       1  UNL1       -0.1672
     35 C         140.3090  143.2142  161.9247 C.3     1  UNL1        0.4292
     36 F         141.6026  142.5148  161.6286 F       1  UNL1       -0.1672
     37 F         141.2124  144.2142  162.5832 F       1  UNL1       -0.1672
     38 F         139.8929  141.9840  161.1740 F       1  UNL1       -0.1672
     39 C         141.9956  142.3966  165.5514 C.3     1  UNL1        0.0528
     40 C         143.1878  142.1748  164.6683 C.ar    1  UNL1       -0.0199
     41 C         143.8060  140.8116  164.5714 C.ar    1  UNL1       -0.0042
     42 C         144.9980  140.5898  163.6884 C.ar    1  UNL1       -0.0003
     43 C         145.5719  141.7312  162.9024 C.ar    1  UNL1       -0.0000
     44 C         144.9537  143.0944  162.9993 C.ar    1  UNL1       -0.0003
     45 C         143.7616  143.3162  163.8823 C.ar    1  UNL1       -0.0042
@<TRIPOS>BOND
     1    25    26    1
     2    26    24    1
     3    24    20    1
     4    20    21    2
     5    20    22   am
     6    22     1    1
     7     1    39    1
     8    39    40    1
     9    40    41   ar
    10    41    42   ar
    11    42    43   ar
    12    43    44   ar
    13    44    45   ar
    14     1     2    1
    15     2     3   ar
    16     3     4   ar
    17     4     5   ar
    18     5     6    1
    19     5     7   ar
    20     7     8   ar
    21     1     9    1
    22     9    10   ar
    23    10    11   ar
    24    11    12    1
    25    11    13   ar
    26    13    14   ar
    27    14    16    1
    28    16    17    1
    29    16    18    1
    30    16    19    1
    31    14    15   ar
    32    24    28    1
    33    28    29    1
    34    28    31    1
    35    31    32    1
    36    31    33    1
    37    31    34    1
    38    28    35    1
    39    35    36    1
    40    35    37    1
    41    35    38    1
    42    45    40   ar
    43     8     2   ar
    44    15     9   ar
    45    26    27    1
    46    22    23    1
    47    29    30    1
@<TRIPOS>MOLECULE
*****
 45 47 0 0 0
SMALL
GASTEIGER

@<TRIPOS>ATOM
      1 C         140.7031  140.2132  165.3812 C.3     1  UNL1        0.0988
      2 C         142.1010  139.6765  165.4696 C.ar    1  UNL1       -0.0020
      3 C         142.4222  138.5766  166.4376 C.ar    1  UNL1       -0.0001
      4 C         143.8200  138.0398  166.5261 C.ar    1  UNL1        0.0294
      5 C         144.8967  138.6029  165.6465 C.ar    1  UNL1        0.1401
      6 F         146.2946  138.0661  165.7350 F       1  UNL1       -0.2042
      7 C         144.5755  139.7028  164.6785 C.ar    1  UNL1        0.0294
      8 C         143.1777  140.2396  164.5901 C.ar    1  UNL1       -0.0001
      9 C         140.7376  140.5438  166.8439 C.ar    1  UNL1        0.0000
     10 C         139.5747  140.1862  167.7213 C.ar    1  UNL1        0.0272
     11 C         139.6092  140.5168  169.1840 C.ar    1  UNL1        0.1398
     12 F         138.4464  140.1591  170.0614 F       1  UNL1       -0.2042
     13 C         140.8066  141.2051  169.7693 C.ar    1  UNL1        0.0335
     14 C         141.9694  141.5627  168.8919 C.ar    1  UNL1        0.0734
     15 C         141.9349  141.2321  167.4292 C.ar    1  UNL1        0.0016
     16 C         143.1668  142.2510  169.4773 C.3     1  UNL1        0.4186
     17 F         144.3642  142.9393  170.0626 F       1  UNL1       -0.1659
     18 F         142.6463  141.9822  170.8582 F       1  UNL1       -0.1659
     19 F         143.6873  142.5199  168.0964 F       1  UNL1       -0.1659
     20 C         140.2290  138.5212  163.4674 C.2     1  UNL1        0.2401
     21 O         139.9850  137.8641  163.8470 O.2     1  UNL1       -0.2736
     22 N         140.6686  139.8826  163.9185 N.am    1  UNL1       -0.2991
     23 H         140.9345  140.5592  163.2546 H       1  UNL1        0.1500
     24 C         140.1946  138.1906  162.0048 C.3     1  UNL1        0.1731
     25 C         137.6310  138.3708  161.6225 C.3     1  UNL1        0.0863
     26 N         138.9337  137.6664  161.3838 N.3     1  UNL1       -0.2878
     27 H         139.0836  137.6584  160.3749 H       1  UNL1        0.1238
     28 C         141.4209  138.3842  161.1629 C.3     1  UNL1        0.2851
     29 O         142.2268  137.6015  162.1569 O.3     1  UNL1       -0.3715
     30 H         141.6529  137.3148  162.8844 H       1  UNL1        0.2109
     31 C         142.6473  138.5778  160.3212 C.3     1  UNL1        0.4292
     32 F         143.8736  138.7714  159.4794 F       1  UNL1       -0.1672
     33 F         142.8589  137.0931  160.2881 F       1  UNL1       -0.1672
     34 F         142.5866  140.0749  160.2515 F       1  UNL1       -0.1672
     35 C         140.6151  139.1669  160.1690 C.3     1  UNL1        0.4292
     36 F         139.8093  139.9497  159.1750 F       1  UNL1       -0.1672
     37 F         140.7561  138.2085  159.0239 F       1  UNL1       -0.1672
     38 F         140.1862  140.3867  160.9295 F       1  UNL1       -0.1672
     39 C         139.3052  140.7500  165.2928 C.3     1  UNL1        0.0528
     40 C         139.0514  142.0780  164.6430 C.ar    1  UNL1       -0.0199
     41 C         137.9601  142.2177  163.6235 C.ar    1  UNL1       -0.0042
     42 C         137.7063  143.5456  162.9737 C.ar    1  UNL1       -0.0003
     43 C         138.5438  144.7338  163.3436 C.ar    1  UNL1       -0.0000
     44 C         139.6351  144.5941  164.3631 C.ar    1  UNL1       -0.0003
     45 C         139.8889  143.2662  165.0129 C.ar    1  UNL1       -0.0042
@<TRIPOS>BOND
     1    25    26    1
     2    26    24    1
     3    24    20    1
     4    20    21    2
     5    20    22   am
     6    22     1    1
     7     1    39    1
     8    39    40    1
     9    40    41   ar
    10    41    42   ar
    11    42    43   ar
    12    43    44   ar
    13    44    45   ar
    14     1     2    1
    15     2     3   ar
    16     3     4   ar
    17     4     5   ar
    18     5     6    1
    19     5     7   ar
    20     7     8   ar
    21     1     9    1
    22     9    10   ar
    23    10    11   ar
    24    11    12    1
    25    11    13   ar
    26    13    14   ar
    27    14    16    1
    28    16    17    1
    29    16    18    1
    30    16    19    1
    31    14    15   ar
    32    24    28    1
    33    28    29    1
    34    28    31    1
    35    31    32    1
    36    31    33    1
    37    31    34    1
    38    28    35    1
    39    35    36    1
    40    35    37    1
    41    35    38    1
    42    45    40   ar
    43     8     2   ar
    44    15     9   ar
    45    26    27    1
    46    22    23    1
    47    29    30    1
@<TRIPOS>MOLECULE
*****
 45 47 0 0 0
SMALL
GASTEIGER

@<TRIPOS>ATOM
      1 C         141.1311  141.2606  165.6181 C.3     1  UNL1        0.0988
      2 C         140.1949  140.1078  165.8293 C.ar    1  UNL1       -0.0020
      3 C         140.2607  138.9128  164.9249 C.ar    1  UNL1       -0.0001
      4 C         139.3246  137.7600  165.1360 C.ar    1  UNL1        0.0294
      5 C         138.3226  137.8021  166.2514 C.ar    1  UNL1        0.1401
      6 F         137.3864  136.6492  166.4626 F       1  UNL1       -0.2042
      7 C         138.2567  138.9970  167.1558 C.ar    1  UNL1        0.0294
      8 C         139.1929  140.1499  166.9447 C.ar    1  UNL1       -0.0001
      9 C         141.7402  141.0128  166.9662 C.ar    1  UNL1        0.0000
     10 C         142.0684  139.6134  167.3952 C.ar    1  UNL1        0.0272
     11 C         142.6776  139.3656  168.7434 C.ar    1  UNL1        0.1398
     12 F         143.0058  137.9662  169.1723 F       1  UNL1       -0.2042
     13 C         142.9586  140.5172  169.6626 C.ar    1  UNL1        0.0335
     14 C         142.6303  141.9165  169.2336 C.ar    1  UNL1        0.0734
     15 C         142.0212  142.1644  167.8855 C.ar    1  UNL1        0.0016
     16 C         142.9113  143.0681  170.1529 C.3     1  UNL1        0.4186
     17 F         143.1922  144.2197  171.0721 F       1  UNL1       -0.1659
     18 F         144.3545  142.6642  170.2179 F       1  UNL1       -0.1659
     19 F         141.4682  143.4721  170.0879 F       1  UNL1       -0.1659
     20 C         139.3604  142.4478  164.1330 C.2     1  UNL1        0.2401
     21 O         138.9441  142.8924  164.6473 O.2     1  UNL1       -0.2736
     22 N         140.5219  141.5085  164.2700 N.am    1  UNL1       -0.2991
     23 H         140.8844  141.0547  163.4751 H       1  UNL1        0.1500
     24 C         138.7512  142.6956  162.7849 C.3     1  UNL1        0.1731
     25 C         139.1303  145.2597  162.6063 C.3     1  UNL1        0.0863
     26 N         138.2442  144.0621  162.4307 N.3     1  UNL1       -0.2878
     27 H         137.9810  144.0324  161.4457 H       1  UNL1        0.1238
     28 C         138.6491  141.5768  161.7908 C.3     1  UNL1        0.2851
     29 O         137.9764  140.7211  162.8230 O.3     1  UNL1       -0.3715
     30 H         137.8936  141.2188  163.6515 H       1  UNL1        0.2109
     31 C         138.5470  140.4581  160.7969 C.3     1  UNL1        0.4292
     32 F         138.4449  139.3394  159.8029 F       1  UNL1       -0.1672
     33 F         137.0716  140.3665  161.0515 F       1  UNL1       -0.1672
     34 F         139.9989  140.4127  160.4230 F       1  UNL1       -0.1672
     35 C         139.3219  142.4325  160.7587 C.3     1  UNL1        0.4292
     36 F         139.9947  143.2881  159.7266 F       1  UNL1       -0.1672
     37 F         138.1571  142.5356  159.8193 F       1  UNL1       -0.1672
     38 F         140.7036  142.6406  161.3044 F       1  UNL1       -0.1672
     39 C         142.0672  142.4134  165.4070 C.3     1  UNL1        0.0528
     40 C         143.2175  142.2806  164.4534 C.ar    1  UNL1       -0.0199
     41 C         144.1416  141.1032  164.5522 C.ar    1  UNL1       -0.0042
     42 C         145.2917  140.9705  163.5986 C.ar    1  UNL1       -0.0003
     43 C         145.5179  142.0151  162.5462 C.ar    1  UNL1       -0.0000
     44 C         144.5938  143.1925  162.4474 C.ar    1  UNL1       -0.0003
     45 C         143.4436  143.3253  163.4010 C.ar    1  UNL1       -0.0042
@<TRIPOS>BOND
     1    25    26    1
     2    26    24    1
     3    24    20    1
     4    20    21    2
     5    20    22   am
     6    22     1    1
     7     1    39    1
     8    39    40    1
     9    40    41   ar
    10    41    42   ar
    11    42    43   ar
    12    43    44   ar
    13    44    45   ar
    14     1     2    1
    15     2     3   ar
    16     3     4   ar
    17     4     5   ar
    18     5     6    1
    19     5     7   ar
    20     7     8   ar
    21     1     9    1
    22     9    10   ar
    23    10    11   ar
    24    11    12    1
    25    11    13   ar
    26    13    14   ar
    27    14    16    1
    28    16    17    1
    29    16    18    1
    30    16    19    1
    31    14    15   ar
    32    24    28    1
    33    28    29    1
    34    28    31    1
    35    31    32    1
    36    31    33    1
    37    31    34    1
    38    28    35    1
    39    35    36    1
    40    35    37    1
    41    35    38    1
    42    45    40   ar
    43     8     2   ar
    44    15     9   ar
    45    26    27    1
    46    22    23    1
    47    29    30    1
@<TRIPOS>MOLECULE
*****
 45 47 0 0 0
SMALL
GASTEIGER

@<TRIPOS>ATOM
      1 C         140.3940  141.6714  165.7200 C.3     1  UNL1        0.0988
      2 C         139.7279  140.3295  165.7961 C.ar    1  UNL1       -0.0020
      3 C         138.6296  140.0927  166.7898 C.ar    1  UNL1       -0.0001
      4 C         137.9635  138.7509  166.8659 C.ar    1  UNL1        0.0294
      5 C         138.3957  137.6459  165.9483 C.ar    1  UNL1        0.1401
      6 F         137.7296  136.3040  166.0244 F       1  UNL1       -0.2042
      7 C         139.4941  137.8827  164.9546 C.ar    1  UNL1        0.0294
      8 C         140.1602  139.2245  164.8784 C.ar    1  UNL1       -0.0001
      9 C         140.8029  141.5499  167.1580 C.ar    1  UNL1        0.0000
     10 C         140.5332  142.6755  168.1121 C.ar    1  UNL1        0.0272
     11 C         140.9421  142.5540  169.5502 C.ar    1  UNL1        0.1398
     12 F         140.6724  143.6796  170.5043 F       1  UNL1       -0.2042
     13 C         141.6207  141.3069  170.0341 C.ar    1  UNL1        0.0335
     14 C         141.8904  140.1813  169.0801 C.ar    1  UNL1        0.0734
     15 C         141.4815  140.3028  167.6420 C.ar    1  UNL1        0.0016
     16 C         142.5691  138.9342  169.5641 C.3     1  UNL1        0.4186
     17 F         143.2477  137.6871  170.0481 F       1  UNL1       -0.1659
     18 F         142.2235  139.2951  170.9785 F       1  UNL1       -0.1659
     19 F         142.9145  138.5733  168.1498 F       1  UNL1       -0.1659
     20 C         138.6563  142.3921  163.9280 C.2     1  UNL1        0.2401
     21 O         138.0529  142.6919  164.3541 O.2     1  UNL1       -0.2736
     22 N         139.9851  141.7928  164.2819 N.am    1  UNL1       -0.2991
     23 H         140.5889  141.4793  163.5703 H       1  UNL1        0.1500
     24 C         138.2474  142.5135  162.4900 C.3     1  UNL1        0.1731
     25 C         138.4891  145.0925  162.2890 C.3     1  UNL1        0.0863
     26 N         137.7547  143.8269  161.9587 N.3     1  UNL1       -0.2878
     27 H         137.7458  143.7485  160.9418 H       1  UNL1        0.1238
     28 C         138.3312  141.3216  161.5831 C.3     1  UNL1        0.2851
     29 O         137.5174  140.5228  162.5578 O.3     1  UNL1       -0.3715
     30 H         137.2909  141.0774  163.3208 H       1  UNL1        0.2109
     31 C         138.4149  140.1296  160.6764 C.3     1  UNL1        0.4292
     32 F         138.4986  138.9377  159.7696 F       1  UNL1       -0.1672
     33 F         136.9186  140.0234  160.6777 F       1  UNL1       -0.1672
     34 F         139.9101  140.0898  160.5645 F       1  UNL1       -0.1672
     35 C         139.1449  142.1202  160.6085 C.3     1  UNL1        0.4292
     36 F         139.9587  142.9189  159.6338 F       1  UNL1       -0.1672
     37 F         138.1560  142.0953  159.4810 F       1  UNL1       -0.1672
     38 F         140.4056  142.4330  161.3588 F       1  UNL1       -0.1672
     39 C         141.0601  143.0132  165.6439 C.3     1  UNL1        0.0528
     40 C         142.1901  143.2362  164.6829 C.ar    1  UNL1       -0.0199
     41 C         142.1547  144.4035  163.7416 C.ar    1  UNL1       -0.0042
     42 C         143.2846  144.6265  162.7806 C.ar    1  UNL1       -0.0003
     43 C         144.4499  143.6823  162.7610 C.ar    1  UNL1       -0.0000
     44 C         144.4853  142.5150  163.7023 C.ar    1  UNL1       -0.0003
     45 C         143.3554  142.2920  164.6633 C.ar    1  UNL1       -0.0042
@<TRIPOS>BOND
     1    25    26    1
     2    26    24    1
     3    24    20    1
     4    20    21    2
     5    20    22   am
     6    22     1    1
     7     1    39    1
     8    39    40    1
     9    40    41   ar
    10    41    42   ar
    11    42    43   ar
    12    43    44   ar
    13    44    45   ar
    14     1     2    1
    15     2     3   ar
    16     3     4   ar
    17     4     5   ar
    18     5     6    1
    19     5     7   ar
    20     7     8   ar
    21     1     9    1
    22     9    10   ar
    23    10    11   ar
    24    11    12    1
    25    11    13   ar
    26    13    14   ar
    27    14    16    1
    28    16    17    1
    29    16    18    1
    30    16    19    1
    31    14    15   ar
    32    24    28    1
    33    28    29    1
    34    28    31    1
    35    31    32    1
    36    31    33    1
    37    31    34    1
    38    28    35    1
    39    35    36    1
    40    35    37    1
    41    35    38    1
    42    45    40   ar
    43     8     2   ar
    44    15     9   ar
    45    26    27    1
    46    22    23    1
    47    29    30    1
@<TRIPOS>MOLECULE
*****
 45 47 0 0 0
SMALL
GASTEIGER

@<TRIPOS>ATOM
      1 C         140.8595  140.8745  165.5894 C.3     1  UNL1        0.0988
      2 C         139.9539  139.6869  165.7301 C.ar    1  UNL1       -0.0020
      3 C         138.7532  139.7614  166.6260 C.ar    1  UNL1       -0.0001
      4 C         137.8477  138.5739  166.7667 C.ar    1  UNL1        0.0294
      5 C         138.1429  137.3119  166.0116 C.ar    1  UNL1        0.1401
      6 F         137.2373  136.1244  166.1523 F       1  UNL1       -0.2042
      7 C         139.3437  137.2375  165.1157 C.ar    1  UNL1        0.0294
      8 C         140.2492  138.4250  164.9750 C.ar    1  UNL1       -0.0001
      9 C         141.0661  140.8930  167.0749 C.ar    1  UNL1        0.0000
     10 C         141.8668  139.8094  167.7343 C.ar    1  UNL1        0.0272
     11 C         142.0734  139.8280  169.2200 C.ar    1  UNL1        0.1398
     12 F         142.8741  138.7444  169.8794 F       1  UNL1       -0.2042
     13 C         141.4792  140.9299  170.0461 C.ar    1  UNL1        0.0335
     14 C         140.6785  142.0134  169.3867 C.ar    1  UNL1        0.0734
     15 C         140.4719  141.9950  167.9012 C.ar    1  UNL1        0.0016
     16 C         140.0843  143.1155  170.2129 C.3     1  UNL1        0.4186
     17 F         139.4901  144.2174  171.0391 F       1  UNL1       -0.1659
     18 F         141.2496  143.9974  169.8747 F       1  UNL1       -0.1659
     19 F         138.9190  142.2336  170.5511 F       1  UNL1       -0.1659
     20 C         139.6024  141.7276  163.4817 C.2     1  UNL1        0.2401
     21 O         139.0739  142.2499  163.7706 O.2     1  UNL1       -0.2736
     22 N         140.6529  140.8560  164.1038 N.am    1  UNL1       -0.2991
     23 H         141.2068  140.2719  163.5370 H       1  UNL1        0.1500
     24 C         139.3958  141.7092  161.9962 C.3     1  UNL1        0.1731
     25 C         137.9207  139.5712  162.0558 C.3     1  UNL1        0.0863
     26 N         138.8726  140.4728  161.3270 N.3     1  UNL1       -0.2878
     27 H         138.3980  140.7766  160.4768 H       1  UNL1        0.1238
     28 C         139.7125  142.9270  161.1797 C.3     1  UNL1        0.2851
     29 O         138.2471  143.2190  161.0469 O.3     1  UNL1       -0.3715
     30 H         137.7382  142.5394  161.5160 H       1  UNL1        0.2109
     31 C         140.0290  144.1449  160.3633 C.3     1  UNL1        0.4292
     32 F         140.3456  145.3627  159.5468 F       1  UNL1       -0.1672
     33 F         140.6284  143.2751  159.2981 F       1  UNL1       -0.1672
     34 F         139.4728  145.1566  161.3208 F       1  UNL1       -0.1672
     35 C         141.1778  142.6352  161.3125 C.3     1  UNL1        0.4292
     36 F         142.6431  142.3433  161.4453 F       1  UNL1       -0.1672
     37 F         141.5468  143.8855  162.0543 F       1  UNL1       -0.1672
     38 F         141.3462  141.3074  160.6352 F       1  UNL1       -0.1672
     39 C         141.7650  142.0620  165.4487 C.3     1  UNL1        0.0528
     40 C         143.1254  141.8997  164.8378 C.ar    1  UNL1       -0.0199
     41 C         143.7351  140.5346  164.7166 C.ar    1  UNL1       -0.0042
     42 C         145.0954  140.3724  164.1057 C.ar    1  UNL1       -0.0003
     43 C         145.8460  141.5752  163.6160 C.ar    1  UNL1       -0.0000
     44 C         145.2363  142.9403  163.7373 C.ar    1  UNL1       -0.0003
     45 C         143.8760  143.1026  164.3481 C.ar    1  UNL1       -0.0042
@<TRIPOS>BOND
     1    25    26    1
     2    26    24    1
     3    24    20    1
     4    20    21    2
     5    20    22   am
     6    22     1    1
     7     1    39    1
     8    39    40    1
     9    40    41   ar
    10    41    42   ar
    11    42    43   ar
    12    43    44   ar
    13    44    45   ar
    14     1     2    1
    15     2     3   ar
    16     3     4   ar
    17     4     5   ar
    18     5     6    1
    19     5     7   ar
    20     7     8   ar
    21     1     9    1
    22     9    10   ar
    23    10    11   ar
    24    11    12    1
    25    11    13   ar
    26    13    14   ar
    27    14    16    1
    28    16    17    1
    29    16    18    1
    30    16    19    1
    31    14    15   ar
    32    24    28    1
    33    28    29    1
    34    28    31    1
    35    31    32    1
    36    31    33    1
    37    31    34    1
    38    28    35    1
    39    35    36    1
    40    35    37    1
    41    35    38    1
    42    45    40   ar
    43     8     2   ar
    44    15     9   ar
    45    26    27    1
    46    22    23    1
    47    29    30    1
@<TRIPOS>MOLECULE
*****
 45 47 0 0 0
SMALL
GASTEIGER

@<TRIPOS>ATOM
      1 C         141.7030  140.2380  165.1391 C.3     1  UNL1        0.0988
      2 C         140.5119  139.3976  165.4929 C.ar    1  UNL1       -0.0020
      3 C         140.4579  137.9587  165.0727 C.ar    1  UNL1       -0.0001
      4 C         139.2669  137.1182  165.4264 C.ar    1  UNL1        0.0294
      5 C         138.1299  137.7168  166.2004 C.ar    1  UNL1        0.1401
      6 F         136.9388  136.8763  166.5541 F       1  UNL1       -0.2042
      7 C         138.1840  139.1557  166.6206 C.ar    1  UNL1        0.0294
      8 C         139.3750  139.9961  166.2669 C.ar    1  UNL1       -0.0001
      9 C         141.6424  139.7302  163.7290 C.ar    1  UNL1        0.0000
     10 C         142.8104  138.9902  163.1475 C.ar    1  UNL1        0.0272
     11 C         142.7497  138.4824  161.7373 C.ar    1  UNL1        0.1398
     12 F         143.9176  137.7424  161.1557 F       1  UNL1       -0.2042
     13 C         141.5211  138.7147  160.9087 C.ar    1  UNL1        0.0335
     14 C         140.3531  139.4548  161.4903 C.ar    1  UNL1        0.0734
     15 C         140.4138  139.9625  162.9004 C.ar    1  UNL1        0.0016
     16 C         139.1245  139.6871  160.6616 C.3     1  UNL1        0.4186
     17 F         137.8960  139.9194  159.8330 F       1  UNL1       -0.1659
     18 F         138.2699  139.5284  161.8842 F       1  UNL1       -0.1659
     19 F         139.9790  139.8458  159.4391 F       1  UNL1       -0.1659
     20 C         142.5432  139.9912  167.5852 C.2     1  UNL1        0.2401
     21 O         142.9762  139.3220  167.5739 O.2     1  UNL1       -0.2736
     22 N         141.7637  140.7457  166.5492 N.am    1  UNL1       -0.2991
     23 H         141.2919  141.5742  166.7948 H       1  UNL1        0.1500
     24 C         142.6038  140.4990  168.9953 C.3     1  UNL1        0.1731
     25 C         142.8040  138.2752  170.3238 C.3     1  UNL1        0.0863
     26 N         143.2675  139.6773  170.0605 N.3     1  UNL1       -0.2878
     27 H         144.2557  139.6195  169.8148 H       1  UNL1        0.1238
     28 C         142.0008  141.8284  169.3404 C.3     1  UNL1        0.2851
     29 O         142.9450  142.5034  168.3901 O.3     1  UNL1       -0.3715
     30 H         143.5161  141.8383  167.9749 H       1  UNL1        0.2109
     31 C         141.3978  143.1578  169.6854 C.3     1  UNL1        0.4292
     32 F         140.7949  144.4872  170.0304 F       1  UNL1       -0.1672
     33 F         142.7187  143.6159  170.2290 F       1  UNL1       -0.1672
     34 F         140.0134  142.8653  169.1879 F       1  UNL1       -0.1672
     35 C         141.0566  141.1536  170.2907 C.3     1  UNL1        0.4292
     36 F         140.1124  140.4787  171.2410 F       1  UNL1       -0.1672
     37 F         141.5507  141.8174  171.5417 F       1  UNL1       -0.1672
     38 F         140.2325  140.2609  169.4109 F       1  UNL1       -0.1672
     39 C         142.8941  141.0783  164.7853 C.3     1  UNL1        0.0528
     40 C         142.7195  142.5372  164.4829 C.ar    1  UNL1       -0.0199
     41 C         143.9202  143.4296  164.3748 C.ar    1  UNL1       -0.0042
     42 C         143.7456  144.8884  164.0724 C.ar    1  UNL1       -0.0003
     43 C         142.3703  145.4547  163.8780 C.ar    1  UNL1       -0.0000
     44 C         141.1696  144.5622  163.9860 C.ar    1  UNL1       -0.0003
     45 C         141.3442  143.1035  164.2885 C.ar    1  UNL1       -0.0042
@<TRIPOS>BOND
     1    25    26    1
     2    26    24    1
     3    24    20    1
     4    20    21    2
     5    20    22   am
     6    22     1    1
     7     1    39    1
     8    39    40    1
     9    40    41   ar
    10    41    42   ar
    11    42    43   ar
    12    43    44   ar
    13    44    45   ar
    14     1     2    1
    15     2     3   ar
    16     3     4   ar
    17     4     5   ar
    18     5     6    1
    19     5     7   ar
    20     7     8   ar
    21     1     9    1
    22     9    10   ar
    23    10    11   ar
    24    11    12    1
    25    11    13   ar
    26    13    14   ar
    27    14    16    1
    28    16    17    1
    29    16    18    1
    30    16    19    1
    31    14    15   ar
    32    24    28    1
    33    28    29    1
    34    28    31    1
    35    31    32    1
    36    31    33    1
    37    31    34    1
    38    28    35    1
    39    35    36    1
    40    35    37    1
    41    35    38    1
    42    45    40   ar
    43     8     2   ar
    44    15     9   ar
    45    26    27    1
    46    22    23    1
    47    29    30    1
@<TRIPOS>MOLECULE
*****
 45 47 0 0 0
SMALL
GASTEIGER

@<TRIPOS>ATOM
      1 C         140.8805  141.0640  165.2043 C.3     1  UNL1        0.0988
      2 C         140.0179  139.8575  165.4290 C.ar    1  UNL1       -0.0020
      3 C         140.3390  138.5664  164.7363 C.ar    1  UNL1       -0.0001
      4 C         139.4765  137.3600  164.9610 C.ar    1  UNL1        0.0294
      5 C         138.2928  137.4447  165.8784 C.ar    1  UNL1        0.1401
      6 F         137.4302  136.2382  166.1032 F       1  UNL1       -0.2042
      7 C         137.9717  138.7358  166.5711 C.ar    1  UNL1        0.0294
      8 C         138.8342  139.9423  166.3464 C.ar    1  UNL1       -0.0001
      9 C         141.1320  141.1590  166.6800 C.ar    1  UNL1        0.0000
     10 C         141.7977  140.0251  167.4019 C.ar    1  UNL1        0.0272
     11 C         142.0492  140.1201  168.8776 C.ar    1  UNL1        0.1398
     12 F         142.7149  138.9862  169.5995 F       1  UNL1       -0.2042
     13 C         141.6350  141.3490  169.6314 C.ar    1  UNL1        0.0335
     14 C         140.9694  142.4829  168.9095 C.ar    1  UNL1        0.0734
     15 C         140.7178  142.3880  167.4338 C.ar    1  UNL1        0.0016
     16 C         140.5552  143.7119  169.6634 C.3     1  UNL1        0.4186
     17 F         140.1410  144.9408  170.4172 F       1  UNL1       -0.1659
     18 F         141.2514  143.1955  170.8877 F       1  UNL1       -0.1659
     19 F         139.8591  144.2282  168.4392 F       1  UNL1       -0.1659
     20 C         139.5855  141.8359  163.0883 C.2     1  UNL1        0.2401
     21 O         139.0811  142.3891  163.3620 O.2     1  UNL1       -0.2736
     22 N         140.6290  140.9690  163.7286 N.am    1  UNL1       -0.2991
     23 H         141.1487  140.3378  163.1803 H       1  UNL1        0.1500
     24 C         139.3340  141.7409  161.6126 C.3     1  UNL1        0.1731
     25 C         139.3294  143.5916  159.7891 C.3     1  UNL1        0.0863
     26 N         138.6339  142.8583  160.8977 N.3     1  UNL1       -0.2878
     27 H         137.7807  142.4649  160.5006 H       1  UNL1        0.1238
     28 C         139.7826  140.5284  160.8518 C.3     1  UNL1        0.2851
     29 O         141.2094  140.9712  160.9874 O.3     1  UNL1       -0.3715
     30 H         141.2434  141.8058  161.4805 H       1  UNL1        0.2109
     31 C         140.2312  139.3160  160.0911 C.3     1  UNL1        0.4292
     32 F         140.6799  138.1036  159.3303 F       1  UNL1       -0.1672
     33 F         140.9199  140.1978  159.0918 F       1  UNL1       -0.1672
     34 F         139.6025  138.2931  160.9901 F       1  UNL1       -0.1672
     35 C         138.3559  140.0856  160.7162 C.3     1  UNL1        0.4292
     36 F         136.9292  139.6427  160.5806 F       1  UNL1       -0.1672
     37 F         138.2571  140.2405  159.2276 F       1  UNL1       -0.1672
     38 F         137.9373  139.7742  162.1226 F       1  UNL1       -0.1672
     39 C         141.7430  142.2704  164.9796 C.3     1  UNL1        0.0528
     40 C         143.0689  142.1271  164.2928 C.ar    1  UNL1       -0.0199
     41 C         143.4488  143.0714  163.1911 C.ar    1  UNL1       -0.0042
     42 C         144.7746  142.9280  162.5043 C.ar    1  UNL1       -0.0003
     43 C         145.7205  141.8404  162.9193 C.ar    1  UNL1       -0.0000
     44 C         145.3406  140.8960  164.0211 C.ar    1  UNL1       -0.0003
     45 C         144.0148  141.0394  164.7078 C.ar    1  UNL1       -0.0042
@<TRIPOS>BOND
     1    25    26    1
     2    26    24    1
     3    24    20    1
     4    20    21    2
     5    20    22   am
     6    22     1    1
     7     1    39    1
     8    39    40    1
     9    40    41   ar
    10    41    42   ar
    11    42    43   ar
    12    43    44   ar
    13    44    45   ar
    14     1     2    1
    15     2     3   ar
    16     3     4   ar
    17     4     5   ar
    18     5     6    1
    19     5     7   ar
    20     7     8   ar
    21     1     9    1
    22     9    10   ar
    23    10    11   ar
    24    11    12    1
    25    11    13   ar
    26    13    14   ar
    27    14    16    1
    28    16    17    1
    29    16    18    1
    30    16    19    1
    31    14    15   ar
    32    24    28    1
    33    28    29    1
    34    28    31    1
    35    31    32    1
    36    31    33    1
    37    31    34    1
    38    28    35    1
    39    35    36    1
    40    35    37    1
    41    35    38    1
    42    45    40   ar
    43     8     2   ar
    44    15     9   ar
    45    26    27    1
    46    22    23    1
    47    29    30    1
@<TRIPOS>MOLECULE
*****
 45 47 0 0 0
SMALL
GASTEIGER

@<TRIPOS>ATOM
      1 C         140.3100  141.2371  165.1891 C.3     1  UNL1        0.0988
      2 C         139.5913  139.9627  165.5200 C.ar    1  UNL1       -0.0020
      3 C         139.9665  138.6877  164.8245 C.ar    1  UNL1       -0.0001
      4 C         139.2479  137.4134  165.1553 C.ar    1  UNL1        0.0294
      5 C         138.1540  137.4140  166.1817 C.ar    1  UNL1        0.1401
      6 F         137.4353  136.1395  166.5125 F       1  UNL1       -0.2042
      7 C         137.7788  138.6889  166.8772 C.ar    1  UNL1        0.0294
      8 C         138.4975  139.9633  166.5464 C.ar    1  UNL1       -0.0001
      9 C         140.6929  141.3954  166.6308 C.ar    1  UNL1        0.0000
     10 C         140.4204  142.6879  167.3416 C.ar    1  UNL1        0.0272
     11 C         140.8033  142.8462  168.7833 C.ar    1  UNL1        0.1398
     12 F         140.5308  144.1386  169.4941 F       1  UNL1       -0.2042
     13 C         141.4586  141.7120  169.5141 C.ar    1  UNL1        0.0335
     14 C         141.7311  140.4195  168.8033 C.ar    1  UNL1        0.0734
     15 C         141.3483  140.2612  167.3617 C.ar    1  UNL1        0.0016
     16 C         142.3865  139.2853  169.5342 C.3     1  UNL1        0.4186
     17 F         143.0418  138.1512  170.2651 F       1  UNL1       -0.1659
     18 F         142.8808  138.7311  168.2309 F       1  UNL1       -0.1659
     19 F         141.8921  139.8395  170.8374 F       1  UNL1       -0.1659
     20 C         138.6154  141.6157  163.2566 C.2     1  UNL1        0.2401
     21 O         138.0105  142.0023  163.6033 O.2     1  UNL1       -0.2736
     22 N         139.9272  141.0788  163.7475 N.am    1  UNL1       -0.2991
     23 H         140.5369  140.6225  163.1236 H       1  UNL1        0.1500
     24 C         138.2325  141.4574  161.8149 C.3     1  UNL1        0.1731
     25 C         137.6879  138.9170  161.8059 C.3     1  UNL1        0.0863
     26 N         137.3508  140.3193  161.3937 N.3     1  UNL1       -0.2878
     27 H         136.4193  140.5177  161.7590 H       1  UNL1        0.1238
     28 C         138.7314  142.4371  160.7945 C.3     1  UNL1        0.2851
     29 O         137.8096  143.4831  161.3480 O.3     1  UNL1       -0.3715
     30 H         137.3068  143.1112  162.0895 H       1  UNL1        0.2109
     31 C         139.2303  143.4168  159.7741 C.3     1  UNL1        0.4292
     32 F         139.7291  144.3965  158.7537 F       1  UNL1       -0.1672
     33 F         140.1941  143.9736  160.7797 F       1  UNL1       -0.1672
     34 F         138.3345  142.9837  158.6516 F       1  UNL1       -0.1672
     35 C         139.6532  141.3912  160.2409 C.3     1  UNL1        0.4292
     36 F         140.5750  140.3453  159.6873 F       1  UNL1       -0.1672
     37 F         140.8397  141.7216  161.0970 F       1  UNL1       -0.1672
     38 F         138.8261  140.6905  159.2041 F       1  UNL1       -0.1672
     39 C         141.0287  142.5114  164.8583 C.3     1  UNL1        0.0528
     40 C         142.3715  142.4639  164.1914 C.ar    1  UNL1       -0.0199
     41 C         143.3276  141.3524  164.5087 C.ar    1  UNL1       -0.0042
     42 C         144.6703  141.3049  163.8418 C.ar    1  UNL1       -0.0003
     43 C         145.0570  142.3688  162.8576 C.ar    1  UNL1       -0.0000
     44 C         144.1009  143.4802  162.5403 C.ar    1  UNL1       -0.0003
     45 C         142.7582  143.5277  163.2072 C.ar    1  UNL1       -0.0042
@<TRIPOS>BOND
     1    25    26    1
     2    26    24    1
     3    24    20    1
     4    20    21    2
     5    20    22   am
     6    22     1    1
     7     1    39    1
     8    39    40    1
     9    40    41   ar
    10    41    42   ar
    11    42    43   ar
    12    43    44   ar
    13    44    45   ar
    14     1     2    1
    15     2     3   ar
    16     3     4   ar
    17     4     5   ar
    18     5     6    1
    19     5     7   ar
    20     7     8   ar
    21     1     9    1
    22     9    10   ar
    23    10    11   ar
    24    11    12    1
    25    11    13   ar
    26    13    14   ar
    27    14    16    1
    28    16    17    1
    29    16    18    1
    30    16    19    1
    31    14    15   ar
    32    24    28    1
    33    28    29    1
    34    28    31    1
    35    31    32    1
    36    31    33    1
    37    31    34    1
    38    28    35    1
    39    35    36    1
    40    35    37    1
    41    35    38    1
    42    45    40   ar
    43     8     2   ar
    44    15     9   ar
    45    26    27    1
    46    22    23    1
    47    29    30    1
