@<TRIPOS>MOLECULE
*****
 30 34 0 0 0
SMALL
GASTEIGER

@<TRIPOS>ATOM
      1 C         140.9499  142.4717  168.0503 C.3     1  UNL1        0.1226
      2 C         141.6586  141.1740  168.3025 C.3     1  UNL1        0.0557
      3 C         142.2520  140.4085  167.1570 C.ar    1  UNL1       -0.0215
      4 C         142.9607  139.1108  167.4092 C.ar    1  UNL1       -0.0044
      5 C         143.5540  138.3454  166.2637 C.ar    1  UNL1       -0.0003
      6 C         143.4386  138.8777  164.8661 C.ar    1  UNL1       -0.0003
      7 C         142.7299  140.1754  164.6139 C.ar    1  UNL1       -0.0023
      8 C         142.1366  140.9408  165.7594 C.ar    1  UNL1       -0.0019
      9 C         141.4279  142.2386  165.5072 C.3     1  UNL1        0.1111
     10 C         142.0212  141.4731  164.3618 C.3     1  UNL1        0.0328
     11 C         141.9059  142.0054  162.9641 C.3     1  UNL1        0.0187
     12 C         141.1971  143.3032  162.7120 C.3     1  UNL1        0.0578
     13 C         140.6038  144.0687  163.8574 C.3     1  UNL1        0.0187
     14 C         140.7192  143.5363  165.2550 C.3     1  UNL1        0.0328
     15 O         140.8346  143.0040  166.6527 O.3     1  UNL1       -0.3565
     16 N         141.0818  143.8355  161.3144 N.3     1  UNL1       -0.2716
     17 C         141.4942  142.9834  160.1508 C.3     1  UNL1        0.0896
     18 C         141.3788  143.5157  158.7532 C.3     1  UNL1        0.0896
     19 N         140.8510  144.9001  158.5191 N.3     1  UNL1       -0.2716
     20 C         140.4386  145.7522  159.6826 C.3     1  UNL1        0.0896
     21 C         140.5540  145.2199  161.0803 C.3     1  UNL1        0.0896
     22 C         140.7356  145.4325  157.1215 C.3     1  UNL1        0.0576
     23 C         139.7607  146.5306  156.8153 C.3     1  UNL1        0.0160
     24 C         139.6453  147.0629  155.4177 C.3     1  UNL1        0.0014
     25 C         140.5049  146.4971  154.3263 C.3     1  UNL1        0.0001
     26 C         141.4797  145.3990  154.6325 C.3     1  UNL1        0.0014
     27 C         141.5951  144.8667  156.0301 C.3     1  UNL1        0.0160
     28 C         140.3566  143.2372  169.1958 C.3     1  UNL1        0.0680
     29 F         138.8267  141.3967  170.2064 F       1  UNL1       -0.2343
     30 C         139.8210  142.5046  170.3901 C.3     1  UNL1        0.1957
@<TRIPOS>BOND
     1    29    30    1
     2    30    28    1
     3     1    28    1
     4     1     2    1
     5     2     3    1
     6     3     4   ar
     7     4     5   ar
     8     5     6   ar
     9     6     7   ar
    10     7     8   ar
    11     8     9    1
    12     9    10    1
    13    10    11    1
    14    11    12    1
    15    12    16    1
    16    16    17    1
    17    17    18    1
    18    18    19    1
    19    19    22    1
    20    22    23    1
    21    23    24    1
    22    24    25    1
    23    25    26    1
    24    26    27    1
    25    19    20    1
    26    20    21    1
    27    12    13    1
    28    13    14    1
    29     9    15    1
    30    15     1    1
    31     8     3   ar
    32    14     9    1
    33    21    16    1
    34    27    22    1
@<TRIPOS>MOLECULE
*****
 30 34 0 0 0
SMALL
GASTEIGER

@<TRIPOS>ATOM
      1 C         142.2152  141.6525  168.1987 C.3     1  UNL1        0.1226
      2 C         140.9347  140.9451  168.5300 C.3     1  UNL1        0.0557
      3 C         140.1486  140.2698  167.4455 C.ar    1  UNL1       -0.0215
      4 C         138.8681  139.5624  167.7768 C.ar    1  UNL1       -0.0044
      5 C         138.0820  138.8871  166.6923 C.ar    1  UNL1       -0.0003
      6 C         138.5765  138.9193  165.2766 C.ar    1  UNL1       -0.0003
      7 C         139.8570  139.6267  164.9452 C.ar    1  UNL1       -0.0023
      8 C         140.6431  140.3020  166.0297 C.ar    1  UNL1       -0.0019
      9 C         141.9236  141.0094  165.6984 C.3     1  UNL1        0.1111
     10 C         141.1375  140.3341  164.6139 C.3     1  UNL1        0.0328
     11 C         141.6320  140.3663  163.1981 C.3     1  UNL1        0.0187
     12 C         142.9126  141.0738  162.8668 C.3     1  UNL1        0.0578
     13 C         143.6986  141.7490  163.9513 C.3     1  UNL1        0.0187
     14 C         143.2041  141.7168  165.3671 C.3     1  UNL1        0.0328
     15 O         142.7097  141.6847  166.7829 O.3     1  UNL1       -0.3565
     16 N         143.4070  141.1059  161.4510 N.3     1  UNL1       -0.2716
     17 C         143.2800  139.8881  160.5844 C.3     1  UNL1        0.0896
     18 C         143.7745  139.9203  159.1686 C.3     1  UNL1        0.0896
     19 N         144.3960  141.1703  158.6194 N.3     1  UNL1       -0.2716
     20 C         144.5229  142.3879  159.4861 C.3     1  UNL1        0.0896
     21 C         144.0285  142.3558  160.9018 C.3     1  UNL1        0.0896
     22 C         144.8904  141.2024  157.2036 C.3     1  UNL1        0.0576
     23 C         146.0089  142.1257  156.8206 C.3     1  UNL1        0.0160
     24 C         146.5033  142.1579  155.4048 C.3     1  UNL1        0.0014
     25 C         145.8793  141.2668  154.3721 C.3     1  UNL1        0.0001
     26 C         144.7610  140.3435  154.7551 C.3     1  UNL1        0.0014
     27 C         144.2665  140.3113  156.1709 C.3     1  UNL1        0.0160
     28 C         143.0013  142.3278  169.2832 C.3     1  UNL1        0.0680
     29 F         141.1774  144.0755  169.8904 F       1  UNL1       -0.2343
     30 C         142.2979  143.1692  170.3065 C.3     1  UNL1        0.1957
@<TRIPOS>BOND
     1    29    30    1
     2    30    28    1
     3     1    28    1
     4     1     2    1
     5     2     3    1
     6     3     4   ar
     7     4     5   ar
     8     5     6   ar
     9     6     7   ar
    10     7     8   ar
    11     8     9    1
    12     9    10    1
    13    10    11    1
    14    11    12    1
    15    12    16    1
    16    16    17    1
    17    17    18    1
    18    18    19    1
    19    19    22    1
    20    22    23    1
    21    23    24    1
    22    24    25    1
    23    25    26    1
    24    26    27    1
    25    19    20    1
    26    20    21    1
    27    12    13    1
    28    13    14    1
    29     9    15    1
    30    15     1    1
    31     8     3   ar
    32    14     9    1
    33    21    16    1
    34    27    22    1
@<TRIPOS>MOLECULE
*****
 30 34 0 0 0
SMALL
GASTEIGER

@<TRIPOS>ATOM
      1 C         142.1966  141.9679  167.9835 C.3     1  UNL1        0.1226
      2 C         141.1676  140.9666  168.4175 C.3     1  UNL1        0.0557
      3 C         140.1246  140.4948  167.4482 C.ar    1  UNL1       -0.0215
      4 C         139.0956  139.4934  167.8823 C.ar    1  UNL1       -0.0044
      5 C         138.0526  139.0217  166.9130 C.ar    1  UNL1       -0.0003
      6 C         138.0386  139.5513  165.5097 C.ar    1  UNL1       -0.0003
      7 C         139.0675  140.5527  165.0756 C.ar    1  UNL1       -0.0023
      8 C         140.1105  141.0244  166.0449 C.ar    1  UNL1       -0.0019
      9 C         141.1396  142.0258  165.6109 C.3     1  UNL1        0.1111
     10 C         140.0965  141.5540  164.6416 C.3     1  UNL1        0.0328
     11 C         140.0825  142.0836  163.2383 C.3     1  UNL1        0.0187
     12 C         141.1116  143.0850  162.8043 C.3     1  UNL1        0.0578
     13 C         142.1546  143.5568  163.7735 C.3     1  UNL1        0.0187
     14 C         142.1686  143.0271  165.1769 C.3     1  UNL1        0.0328
     15 O         142.1826  142.4975  166.5802 O.3     1  UNL1       -0.3565
     16 N         141.0976  143.6147  161.4009 N.3     1  UNL1       -0.2716
     17 C         140.5970  145.0021  161.1279 C.3     1  UNL1        0.0896
     18 C         140.5829  145.5317  159.7246 C.3     1  UNL1        0.0896
     19 N         141.0695  144.6739  158.5943 N.3     1  UNL1       -0.2716
     20 C         141.5701  143.2865  158.8674 C.3     1  UNL1        0.0896
     21 C         141.5841  142.7569  160.2707 C.3     1  UNL1        0.0896
     22 C         141.0555  145.2035  157.1910 C.3     1  UNL1        0.0576
     23 C         142.0480  144.6953  156.1876 C.3     1  UNL1        0.0160
     24 C         142.0340  145.2249  154.7843 C.3     1  UNL1        0.0014
     25 C         141.0275  146.2627  154.3843 C.3     1  UNL1        0.0001
     26 C         140.0351  146.7709  155.3877 C.3     1  UNL1        0.0014
     27 C         140.0491  146.2413  156.7910 C.3     1  UNL1        0.0160
     28 C         143.2397  142.4397  168.9528 C.3     1  UNL1        0.0680
     29 F         143.6298  143.8559  171.0956 F       1  UNL1       -0.2343
     30 C         142.8491  142.8131  170.3521 C.3     1  UNL1        0.1957
@<TRIPOS>BOND
     1    29    30    1
     2    30    28    1
     3     1    28    1
     4     1     2    1
     5     2     3    1
     6     3     4   ar
     7     4     5   ar
     8     5     6   ar
     9     6     7   ar
    10     7     8   ar
    11     8     9    1
    12     9    10    1
    13    10    11    1
    14    11    12    1
    15    12    16    1
    16    16    17    1
    17    17    18    1
    18    18    19    1
    19    19    22    1
    20    22    23    1
    21    23    24    1
    22    24    25    1
    23    25    26    1
    24    26    27    1
    25    19    20    1
    26    20    21    1
    27    12    13    1
    28    13    14    1
    29     9    15    1
    30    15     1    1
    31     8     3   ar
    32    14     9    1
    33    21    16    1
    34    27    22    1
@<TRIPOS>MOLECULE
*****
 30 34 0 0 0
SMALL
GASTEIGER

@<TRIPOS>ATOM
      1 C         139.6718  138.9540  164.8581 C.3     1  UNL1        0.1226
      2 C         141.0293  138.5724  165.3694 C.3     1  UNL1        0.0557
      3 C         142.2590  139.1628  164.7454 C.ar    1  UNL1       -0.0215
      4 C         143.6166  138.7812  165.2567 C.ar    1  UNL1       -0.0044
      5 C         144.8462  139.3715  164.6327 C.ar    1  UNL1       -0.0003
      6 C         144.7183  140.3435  163.4974 C.ar    1  UNL1       -0.0003
      7 C         143.3608  140.7251  162.9861 C.ar    1  UNL1       -0.0023
      8 C         142.1312  140.1347  163.6101 C.ar    1  UNL1       -0.0019
      9 C         140.7735  140.5163  163.0988 C.3     1  UNL1        0.1111
     10 C         142.0033  141.1067  162.4748 C.3     1  UNL1        0.0328
     11 C         141.8754  142.0787  161.3395 C.3     1  UNL1        0.0187
     12 C         140.5178  142.4603  160.8282 C.3     1  UNL1        0.0578
     13 C         139.2881  141.8699  161.4522 C.3     1  UNL1        0.0187
     14 C         139.4160  140.8979  162.5875 C.3     1  UNL1        0.0328
     15 O         139.5439  139.9260  163.7228 O.3     1  UNL1       -0.3565
     16 N         140.3899  143.4323  159.6929 N.3     1  UNL1       -0.2716
     17 C         140.4099  144.9077  159.9629 C.3     1  UNL1        0.0896
     18 C         140.2820  145.8797  158.8276 C.3     1  UNL1        0.0896
     19 N         140.1341  145.3762  157.4223 N.3     1  UNL1       -0.2716
     20 C         140.1141  143.9009  157.1524 C.3     1  UNL1        0.0896
     21 C         140.2420  142.9289  158.2877 C.3     1  UNL1        0.0896
     22 C         140.0062  146.3482  156.2870 C.3     1  UNL1        0.0576
     23 C         139.1028  147.5387  156.4170 C.3     1  UNL1        0.0160
     24 C         138.9750  148.5106  155.2818 C.3     1  UNL1        0.0014
     25 C         139.7504  148.2922  154.0164 C.3     1  UNL1        0.0001
     26 C         140.6538  147.1018  153.8865 C.3     1  UNL1        0.0014
     27 C         140.7816  146.1298  155.0218 C.3     1  UNL1        0.0160
     28 C         138.4421  138.3636  165.4821 C.3     1  UNL1        0.0680
     29 F         136.9655  138.0294  167.5934 F       1  UNL1       -0.2343
     30 C         138.0036  138.8115  166.8448 C.3     1  UNL1        0.1957
@<TRIPOS>BOND
     1    29    30    1
     2    30    28    1
     3     1    28    1
     4     1     2    1
     5     2     3    1
     6     3     4   ar
     7     4     5   ar
     8     5     6   ar
     9     6     7   ar
    10     7     8   ar
    11     8     9    1
    12     9    10    1
    13    10    11    1
    14    11    12    1
    15    12    16    1
    16    16    17    1
    17    17    18    1
    18    18    19    1
    19    19    22    1
    20    22    23    1
    21    23    24    1
    22    24    25    1
    23    25    26    1
    24    26    27    1
    25    19    20    1
    26    20    21    1
    27    12    13    1
    28    13    14    1
    29     9    15    1
    30    15     1    1
    31     8     3   ar
    32    14     9    1
    33    21    16    1
    34    27    22    1
@<TRIPOS>MOLECULE
*****
 30 34 0 0 0
SMALL
GASTEIGER

@<TRIPOS>ATOM
      1 C         140.7084  142.1517  167.4322 C.3     1  UNL1        0.1226
      2 C         140.1609  140.7669  167.6119 C.3     1  UNL1        0.0557
      3 C         139.6364  140.0084  166.4289 C.ar    1  UNL1       -0.0215
      4 C         139.0888  138.6235  166.6086 C.ar    1  UNL1       -0.0044
      5 C         138.5643  137.8651  165.4255 C.ar    1  UNL1       -0.0003
      6 C         138.5874  138.4915  164.0628 C.ar    1  UNL1       -0.0003
      7 C         139.1349  139.8764  163.8831 C.ar    1  UNL1       -0.0023
      8 C         139.6594  140.6348  165.0661 C.ar    1  UNL1       -0.0019
      9 C         140.2070  142.0197  164.8865 C.3     1  UNL1        0.1111
     10 C         139.6824  141.2612  163.7034 C.3     1  UNL1        0.0328
     11 C         139.7054  141.8876  162.3406 C.3     1  UNL1        0.0187
     12 C         140.2530  143.2726  162.1610 C.3     1  UNL1        0.0578
     13 C         140.7775  144.0310  163.3440 C.3     1  UNL1        0.0187
     14 C         140.7545  143.4046  164.7068 C.3     1  UNL1        0.0328
     15 O         140.7314  142.7782  166.0695 O.3     1  UNL1       -0.3565
     16 N         140.2760  143.8990  160.7982 N.3     1  UNL1       -0.2716
     17 C         140.9098  145.2443  160.6018 C.3     1  UNL1        0.0896
     18 C         140.9328  145.8708  159.2391 C.3     1  UNL1        0.0896
     19 N         140.3221  145.1518  158.0727 N.3     1  UNL1       -0.2716
     20 C         139.6884  143.8065  158.2692 C.3     1  UNL1        0.0896
     21 C         139.6654  143.1801  159.6319 C.3     1  UNL1        0.0896
     22 C         140.3451  145.7782  156.7100 C.3     1  UNL1        0.0576
     23 C         139.4775  146.9660  156.4158 C.3     1  UNL1        0.0160
     24 C         139.5005  147.5924  155.0530 C.3     1  UNL1        0.0014
     25 C         140.3912  147.0311  153.9845 C.3     1  UNL1        0.0001
     26 C         141.2588  145.8434  154.2787 C.3     1  UNL1        0.0014
     27 C         141.2357  145.2169  155.6415 C.3     1  UNL1        0.0160
     28 C         141.2330  142.9103  168.6153 C.3     1  UNL1        0.0680
     29 F         140.2928  144.8827  170.0207 F       1  UNL1       -0.2343
     30 C         140.2839  143.4280  169.6551 C.3     1  UNL1        0.1957
@<TRIPOS>BOND
     1    29    30    1
     2    30    28    1
     3     1    28    1
     4     1     2    1
     5     2     3    1
     6     3     4   ar
     7     4     5   ar
     8     5     6   ar
     9     6     7   ar
    10     7     8   ar
    11     8     9    1
    12     9    10    1
    13    10    11    1
    14    11    12    1
    15    12    16    1
    16    16    17    1
    17    17    18    1
    18    18    19    1
    19    19    22    1
    20    22    23    1
    21    23    24    1
    22    24    25    1
    23    25    26    1
    24    26    27    1
    25    19    20    1
    26    20    21    1
    27    12    13    1
    28    13    14    1
    29     9    15    1
    30    15     1    1
    31     8     3   ar
    32    14     9    1
    33    21    16    1
    34    27    22    1
@<TRIPOS>MOLECULE
*****
 30 34 0 0 0
SMALL
GASTEIGER

@<TRIPOS>ATOM
      1 C         140.5675  143.0759  164.5285 C.3     1  UNL1        0.1226
      2 C         141.1309  142.4807  165.7847 C.3     1  UNL1        0.0557
      3 C         141.7374  141.1090  165.7584 C.ar    1  UNL1       -0.0215
      4 C         142.3008  140.5138  167.0147 C.ar    1  UNL1       -0.0044
      5 C         142.9072  139.1421  166.9883 C.ar    1  UNL1       -0.0003
      6 C         142.9501  138.3656  165.7056 C.ar    1  UNL1       -0.0003
      7 C         142.3867  138.9608  164.4493 C.ar    1  UNL1       -0.0023
      8 C         141.7803  140.3325  164.4757 C.ar    1  UNL1       -0.0019
      9 C         141.2169  140.9278  163.2194 C.3     1  UNL1        0.1111
     10 C         141.8233  139.5560  163.1931 C.3     1  UNL1        0.0328
     11 C         141.8663  138.7795  161.9104 C.3     1  UNL1        0.0187
     12 C         141.3028  139.3748  160.6541 C.3     1  UNL1        0.0578
     13 C         140.6964  140.7465  160.6805 C.3     1  UNL1        0.0187
     14 C         140.6535  141.5230  161.9631 C.3     1  UNL1        0.0328
     15 O         140.6105  142.2994  163.2458 O.3     1  UNL1       -0.3565
     16 N         141.3458  138.5983  159.3714 N.3     1  UNL1       -0.2716
     17 C         140.1080  138.4626  158.5350 C.3     1  UNL1        0.0896
     18 C         140.1510  137.6861  157.2523 C.3     1  UNL1        0.0896
     19 N         141.4318  137.0454  156.8061 N.3     1  UNL1       -0.2716
     20 C         142.6695  137.1811  157.6424 C.3     1  UNL1        0.0896
     21 C         142.6265  137.9576  158.9251 C.3     1  UNL1        0.0896
     22 C         141.4747  136.2689  155.5234 C.3     1  UNL1        0.0576
     23 C         142.3435  135.0511  155.4127 C.3     1  UNL1        0.0160
     24 C         142.3865  134.2746  154.1300 C.3     1  UNL1        0.0014
     25 C         141.5607  134.7160  152.9581 C.3     1  UNL1        0.0001
     26 C         140.6920  135.9337  153.0688 C.3     1  UNL1        0.0014
     27 C         140.6490  136.7102  154.3515 C.3     1  UNL1        0.0160
     28 C         139.9611  144.4477  164.5548 C.3     1  UNL1        0.0680
     29 F         138.3321  145.5328  166.2632 F       1  UNL1       -0.2343
     30 C         138.5695  144.6425  165.0796 C.3     1  UNL1        0.1957
@<TRIPOS>BOND
     1    29    30    1
     2    30    28    1
     3     1    28    1
     4     1     2    1
     5     2     3    1
     6     3     4   ar
     7     4     5   ar
     8     5     6   ar
     9     6     7   ar
    10     7     8   ar
    11     8     9    1
    12     9    10    1
    13    10    11    1
    14    11    12    1
    15    12    16    1
    16    16    17    1
    17    17    18    1
    18    18    19    1
    19    19    22    1
    20    22    23    1
    21    23    24    1
    22    24    25    1
    23    25    26    1
    24    26    27    1
    25    19    20    1
    26    20    21    1
    27    12    13    1
    28    13    14    1
    29     9    15    1
    30    15     1    1
    31     8     3   ar
    32    14     9    1
    33    21    16    1
    34    27    22    1
@<TRIPOS>MOLECULE
*****
 30 34 0 0 0
SMALL
GASTEIGER

@<TRIPOS>ATOM
      1 C         140.0728  142.6344  164.2391 C.3     1  UNL1        0.1226
      2 C         141.3685  143.0351  164.8798 C.3     1  UNL1        0.0557
      3 C         142.6677  142.5350  164.3211 C.ar    1  UNL1       -0.0215
      4 C         143.9634  142.9357  164.9618 C.ar    1  UNL1       -0.0044
      5 C         145.2625  142.4356  164.4032 C.ar    1  UNL1       -0.0003
      6 C         145.2659  141.5347  163.2038 C.ar    1  UNL1       -0.0003
      7 C         143.9702  141.1340  162.5631 C.ar    1  UNL1       -0.0023
      8 C         142.6711  141.6341  163.1218 C.ar    1  UNL1       -0.0019
      9 C         141.3753  141.2334  162.4811 C.3     1  UNL1        0.1111
     10 C         142.6745  140.7332  161.9224 C.3     1  UNL1        0.0328
     11 C         142.6779  139.8324  160.7231 C.3     1  UNL1        0.0187
     12 C         141.3821  139.4316  160.0824 C.3     1  UNL1        0.0578
     13 C         140.0830  139.9318  160.6411 C.3     1  UNL1        0.0187
     14 C         140.0796  140.8327  161.8404 C.3     1  UNL1        0.0328
     15 O         140.0762  141.7335  163.0397 O.3     1  UNL1       -0.3565
     16 N         141.3855  138.5308  158.8831 N.3     1  UNL1       -0.2716
     17 C         142.6365  137.7974  158.4995 C.3     1  UNL1        0.0896
     18 C         142.6399  136.8965  157.3001 C.3     1  UNL1        0.0896
     19 N         141.3923  136.7290  156.4844 N.3     1  UNL1       -0.2716
     20 C         140.1413  137.4624  156.8680 C.3     1  UNL1        0.0896
     21 C         140.1379  138.3633  158.0673 C.3     1  UNL1        0.0896
     22 C         141.3957  135.8282  155.2850 C.3     1  UNL1        0.0576
     23 C         140.6251  136.2119  154.0566 C.3     1  UNL1        0.0160
     24 C         140.6285  135.3111  152.8572 C.3     1  UNL1        0.0014
     25 C         141.4025  134.0264  152.8863 C.3     1  UNL1        0.0001
     26 C         142.1730  133.6427  154.1148 C.3     1  UNL1        0.0014
     27 C         142.1696  134.5436  155.3141 C.3     1  UNL1        0.0160
     28 C         138.7736  143.1345  164.7977 C.3     1  UNL1        0.0680
     29 F         138.5153  145.3447  166.1386 F       1  UNL1       -0.2343
     30 C         138.4896  144.6070  164.8329 C.3     1  UNL1        0.1957
@<TRIPOS>BOND
     1    29    30    1
     2    30    28    1
     3     1    28    1
     4     1     2    1
     5     2     3    1
     6     3     4   ar
     7     4     5   ar
     8     5     6   ar
     9     6     7   ar
    10     7     8   ar
    11     8     9    1
    12     9    10    1
    13    10    11    1
    14    11    12    1
    15    12    16    1
    16    16    17    1
    17    17    18    1
    18    18    19    1
    19    19    22    1
    20    22    23    1
    21    23    24    1
    22    24    25    1
    23    25    26    1
    24    26    27    1
    25    19    20    1
    26    20    21    1
    27    12    13    1
    28    13    14    1
    29     9    15    1
    30    15     1    1
    31     8     3   ar
    32    14     9    1
    33    21    16    1
    34    27    22    1
@<TRIPOS>MOLECULE
*****
 30 34 0 0 0
SMALL
GASTEIGER

@<TRIPOS>ATOM
      1 C         138.9890  139.4976  167.0208 C.3     1  UNL1        0.1226
      2 C         139.6199  140.0672  168.2567 C.3     1  UNL1        0.0557
      3 C         140.8880  140.8617  168.1535 C.ar    1  UNL1       -0.0215
      4 C         141.5189  141.4312  169.3894 C.ar    1  UNL1       -0.0044
      5 C         142.7870  142.2257  169.2861 C.ar    1  UNL1       -0.0003
      6 C         143.4242  142.4506  167.9470 C.ar    1  UNL1       -0.0003
      7 C         142.7933  141.8811  166.7110 C.ar    1  UNL1       -0.0023
      8 C         141.5252  141.0866  166.8143 C.ar    1  UNL1       -0.0019
      9 C         140.8943  140.5170  165.5783 C.3     1  UNL1        0.1111
     10 C         142.1625  141.3115  165.4751 C.3     1  UNL1        0.0328
     11 C         142.7997  141.5364  164.1360 C.3     1  UNL1        0.0187
     12 C         142.1687  140.9668  162.9000 C.3     1  UNL1        0.0578
     13 C         140.9006  140.1723  163.0033 C.3     1  UNL1        0.0187
     14 C         140.2634  139.9474  164.3424 C.3     1  UNL1        0.0328
     15 O         139.6262  139.7225  165.6816 O.3     1  UNL1       -0.3565
     16 N         142.8059  141.1917  161.5608 N.3     1  UNL1       -0.2716
     17 C         142.9744  140.0451  160.6084 C.3     1  UNL1        0.0896
     18 C         143.6117  140.2700  159.2692 C.3     1  UNL1        0.0896
     19 N         144.0803  141.6415  158.8825 N.3     1  UNL1       -0.2716
     20 C         143.9118  142.7879  159.8349 C.3     1  UNL1        0.0896
     21 C         143.2746  142.5630  161.1741 C.3     1  UNL1        0.0896
     22 C         144.7176  141.8664  157.5433 C.3     1  UNL1        0.0576
     23 C         146.1407  142.3330  157.4588 C.3     1  UNL1        0.0160
     24 C         146.7779  142.5579  156.1196 C.3     1  UNL1        0.0014
     25 C         145.9920  142.3162  154.8650 C.3     1  UNL1        0.0001
     26 C         144.5689  141.8496  154.9496 C.3     1  UNL1        0.0014
     27 C         143.9317  141.6247  156.2887 C.3     1  UNL1        0.0160
     28 C         137.7208  138.7031  167.1240 C.3     1  UNL1        0.0680
     29 F         138.5574  136.8688  165.4853 F       1  UNL1       -0.2343
     30 C         137.6795  137.2885  166.6268 C.3     1  UNL1        0.1957
@<TRIPOS>BOND
     1    29    30    1
     2    30    28    1
     3     1    28    1
     4     1     2    1
     5     2     3    1
     6     3     4   ar
     7     4     5   ar
     8     5     6   ar
     9     6     7   ar
    10     7     8   ar
    11     8     9    1
    12     9    10    1
    13    10    11    1
    14    11    12    1
    15    12    16    1
    16    16    17    1
    17    17    18    1
    18    18    19    1
    19    19    22    1
    20    22    23    1
    21    23    24    1
    22    24    25    1
    23    25    26    1
    24    26    27    1
    25    19    20    1
    26    20    21    1
    27    12    13    1
    28    13    14    1
    29     9    15    1
    30    15     1    1
    31     8     3   ar
    32    14     9    1
    33    21    16    1
    34    27    22    1
@<TRIPOS>MOLECULE
*****
 30 34 0 0 0
SMALL
GASTEIGER

@<TRIPOS>ATOM
      1 C         141.6971  141.3426  166.1551 C.3     1  UNL1        0.1226
      2 C         140.7208  142.4711  166.3080 C.3     1  UNL1        0.0557
      3 C         139.8436  142.8651  165.1567 C.ar    1  UNL1       -0.0215
      4 C         138.8673  143.9936  165.3096 C.ar    1  UNL1       -0.0044
      5 C         137.9902  144.3876  164.1584 C.ar    1  UNL1       -0.0003
      6 C         138.0894  143.6531  162.8542 C.ar    1  UNL1       -0.0003
      7 C         139.0657  142.5247  162.7013 C.ar    1  UNL1       -0.0023
      8 C         139.9428  142.1307  163.8526 C.ar    1  UNL1       -0.0019
      9 C         140.9192  141.0022  163.6997 C.3     1  UNL1        0.1111
     10 C         140.0420  141.3963  162.5485 C.3     1  UNL1        0.0328
     11 C         140.1412  140.6618  161.2443 C.3     1  UNL1        0.0187
     12 C         141.1176  139.5333  161.0915 C.3     1  UNL1        0.0578
     13 C         141.9947  139.1393  162.2427 C.3     1  UNL1        0.0187
     14 C         141.8955  139.8737  163.5469 C.3     1  UNL1        0.0328
     15 O         141.7963  140.6082  164.8510 O.3     1  UNL1       -0.3565
     16 N         141.2168  138.7989  159.7873 N.3     1  UNL1       -0.2716
     17 C         140.0112  138.6737  158.9035 C.3     1  UNL1        0.0896
     18 C         140.1104  137.9393  157.5994 C.3     1  UNL1        0.0896
     19 N         141.4152  137.3300  157.1791 N.3     1  UNL1       -0.2716
     20 C         142.6206  137.4552  158.0629 C.3     1  UNL1        0.0896
     21 C         142.5214  138.1896  159.3670 C.3     1  UNL1        0.0896
     22 C         141.5144  136.5956  155.8749 C.3     1  UNL1        0.0576
     23 C         142.6246  135.6120  155.6506 C.3     1  UNL1        0.0160
     24 C         142.7238  134.8776  154.3465 C.3     1  UNL1        0.0014
     25 C         141.7128  135.1267  153.2667 C.3     1  UNL1        0.0001
     26 C         140.6027  136.1102  153.4910 C.3     1  UNL1        0.0014
     27 C         140.5035  136.8446  154.7952 C.3     1  UNL1        0.0160
     28 C         142.5742  140.9485  167.3064 C.3     1  UNL1        0.0680
     29 F         143.2674  138.4908  166.8282 F       1  UNL1       -0.2343
     30 C         142.6492  139.5131  167.7351 C.3     1  UNL1        0.1957
@<TRIPOS>BOND
     1    29    30    1
     2    30    28    1
     3     1    28    1
     4     1     2    1
     5     2     3    1
     6     3     4   ar
     7     4     5   ar
     8     5     6   ar
     9     6     7   ar
    10     7     8   ar
    11     8     9    1
    12     9    10    1
    13    10    11    1
    14    11    12    1
    15    12    16    1
    16    16    17    1
    17    17    18    1
    18    18    19    1
    19    19    22    1
    20    22    23    1
    21    23    24    1
    22    24    25    1
    23    25    26    1
    24    26    27    1
    25    19    20    1
    26    20    21    1
    27    12    13    1
    28    13    14    1
    29     9    15    1
    30    15     1    1
    31     8     3   ar
    32    14     9    1
    33    21    16    1
    34    27    22    1
