@<TRIPOS>MOLECULE
*****
 34 38 0 0 0
SMALL
GASTEIGER

@<TRIPOS>ATOM
      1 C         137.0098  141.1654  156.8341 C.ar    1  UNL1        0.1390
      2 C         137.3641  142.3794  156.0275 C.ar    1  UNL1        0.0366
      3 C         138.3849  143.3504  156.5425 C.ar    1  UNL1        0.0008
      4 C         139.0514  143.1073  157.8641 C.ar    1  UNL1        0.0021
      5 C         138.6971  141.8933  158.6707 C.ar    1  UNL1       -0.0168
      6 C         137.6763  140.9224  158.1557 C.ar    1  UNL1        0.0327
      7 C         139.5141  141.9178  159.9285 C.3     1  UNL1        0.0520
      8 C         140.3733  143.1470  159.8992 C.2     1  UNL1        0.0074
      9 C         141.4093  143.9218  160.6584 C.2     1  UNL1        0.0976
     10 N         141.7636  145.1358  159.8518 N.2     1  UNL1       -0.1526
     11 N         140.9466  145.1113  158.5941 N.2     1  UNL1       -0.1678
     12 C         140.0874  143.8821  158.6234 C.3     1  UNL1        0.1672
     13 C         141.9891  143.5482  161.9903 C.ar    1  UNL1        0.0265
     14 C         142.7373  144.4631  162.9142 C.ar    1  UNL1        0.0376
     15 S         143.1332  143.6745  164.1272 S.2     1  UNL1       -0.0780
     16 C         142.6298  142.2722  163.9530 C.ar    1  UNL1        0.0711
     17 C         141.9227  142.1942  162.6324 C.ar    1  UNL1        0.0168
     18 C         142.8030  141.1458  164.9283 C.1     1  UNL1       -0.0543
     19 C         142.9764  140.0194  165.9035 C.1     1  UNL1       -0.0388
     20 C         143.1497  138.8929  166.8789 C.3     1  UNL1        0.2814
     21 O         142.9837  139.1413  168.3488 O.3     1  UNL1       -0.4612
     22 C         142.2646  140.3684  168.8255 C.ar    1  UNL1        0.1400
     23 C         143.0422  141.5949  169.2011 C.ar    1  UNL1        0.0369
     24 C         142.3232  142.8220  169.6778 C.ar    1  UNL1        0.0031
     25 C         140.8267  142.8226  169.7788 C.ar    1  UNL1        0.0002
     26 C         140.0491  141.5961  169.4031 C.ar    1  UNL1        0.0031
     27 C         140.7681  140.3690  168.9265 C.ar    1  UNL1        0.0369
     28 O         135.9891  140.1945  156.3190 O.3     1  UNL1       -0.4656
     29 C         134.5766  140.6433  156.0879 C.3     1  UNL1        0.2896
     30 C         130.9011  139.6856  157.2382 C.3     1  UNL1        0.1150
     31 N         132.0296  140.3575  156.5137 N.am    1  UNL1       -0.2730
     32 C         131.7399  141.4153  155.4905 C.3     1  UNL1        0.1150
     33 C         133.4481  139.9715  156.8124 C.2     1  UNL1        0.2703
     34 O         133.7378  138.9137  157.8357 O.2     1  UNL1       -0.2708
@<TRIPOS>BOND
     1    30    31    1
     2    31    32    1
     3    31    33   am
     4    33    34    2
     5    33    29    1
     6    29    28    1
     7    28     1    1
     8     1     2   ar
     9     2     3   ar
    10     3     4   ar
    11     4     5   ar
    12     5     6   ar
    13     5     7    1
    14     7     8    1
    15     8     9    2
    16     9    13    1
    17    13    14   ar
    18    14    15   ar
    19    15    16   ar
    20    16    18    1
    21    18    19    3
    22    19    20    1
    23    20    21    1
    24    21    22    1
    25    22    23   ar
    26    23    24   ar
    27    24    25   ar
    28    25    26   ar
    29    26    27   ar
    30    16    17   ar
    31     9    10    1
    32    10    11    2
    33    11    12    1
    34     6     1   ar
    35    12     8    1
    36    12     4    1
    37    17    13   ar
    38    27    22   ar
@<TRIPOS>MOLECULE
*****
 34 38 0 0 0
SMALL
GASTEIGER

@<TRIPOS>ATOM
      1 C         139.4566  140.4397  167.2146 C.ar    1  UNL1        0.1390
      2 C         138.5712  139.2450  167.0176 C.ar    1  UNL1        0.0366
      3 C         138.2032  138.8047  165.6317 C.ar    1  UNL1        0.0008
      4 C         138.7205  139.5589  164.4429 C.ar    1  UNL1        0.0021
      5 C         139.6058  140.7536  164.6399 C.ar    1  UNL1       -0.0168
      6 C         139.9739  141.1940  166.0258 C.ar    1  UNL1        0.0327
      7 C         139.9614  141.2952  163.2870 C.3     1  UNL1        0.0520
      8 C         139.2958  140.4353  162.2539 C.2     1  UNL1        0.0074
      9 C         139.1041  140.2384  160.7793 C.2     1  UNL1        0.0976
     10 N         138.2187  139.0437  160.5823 N.2     1  UNL1       -0.1526
     11 N         137.8632  138.5022  161.9352 N.2     1  UNL1       -0.1678
     12 C         138.5288  139.3622  162.9683 C.3     1  UNL1        0.1672
     13 C         139.6942  141.0873  159.6925 C.ar    1  UNL1        0.0265
     14 C         140.9976  140.8418  158.9915 C.ar    1  UNL1        0.0376
     15 S         141.1935  141.9335  157.9816 S.2     1  UNL1       -0.0780
     16 C         140.0112  142.8536  158.0584 C.ar    1  UNL1        0.0711
     17 C         139.0847  142.3306  159.1157 C.ar    1  UNL1        0.0168
     18 C         139.7939  144.0811  157.2242 C.1     1  UNL1       -0.0543
     19 C         139.5766  145.3087  156.3900 C.1     1  UNL1       -0.0388
     20 C         139.3592  146.5363  155.5558 C.3     1  UNL1        0.2814
     21 O         138.9139  147.8140  156.2034 O.3     1  UNL1       -0.4612
     22 C         138.9700  149.1023  155.4372 C.ar    1  UNL1        0.1400
     23 C         139.5897  149.1363  154.0716 C.ar    1  UNL1        0.0369
     24 C         139.6459  150.4245  153.3053 C.ar    1  UNL1        0.0031
     25 C         139.0823  151.6788  153.9046 C.ar    1  UNL1        0.0002
     26 C         138.4625  151.6448  155.2702 C.ar    1  UNL1        0.0031
     27 C         138.4064  150.3565  156.0365 C.ar    1  UNL1        0.0369
     28 O         139.8247  140.8801  168.6005 O.3     1  UNL1       -0.4656
     29 C         140.3699  142.2586  168.8294 C.3     1  UNL1        0.2896
     30 C         144.1715  142.5954  169.9178 C.3     1  UNL1        0.1150
     31 N         142.9533  142.4029  169.0639 N.am    1  UNL1       -0.2730
     32 C         143.1005  142.1622  167.5907 C.3     1  UNL1        0.1150
     33 C         141.5880  142.4511  169.6833 C.2     1  UNL1        0.2703
     34 O         141.4408  142.6918  171.1565 O.2     1  UNL1       -0.2708
@<TRIPOS>BOND
     1    30    31    1
     2    31    32    1
     3    31    33   am
     4    33    34    2
     5    33    29    1
     6    29    28    1
     7    28     1    1
     8     1     2   ar
     9     2     3   ar
    10     3     4   ar
    11     4     5   ar
    12     5     6   ar
    13     5     7    1
    14     7     8    1
    15     8     9    2
    16     9    13    1
    17    13    14   ar
    18    14    15   ar
    19    15    16   ar
    20    16    18    1
    21    18    19    3
    22    19    20    1
    23    20    21    1
    24    21    22    1
    25    22    23   ar
    26    23    24   ar
    27    24    25   ar
    28    25    26   ar
    29    26    27   ar
    30    16    17   ar
    31     9    10    1
    32    10    11    2
    33    11    12    1
    34     6     1   ar
    35    12     8    1
    36    12     4    1
    37    17    13   ar
    38    27    22   ar
@<TRIPOS>MOLECULE
*****
 34 38 0 0 0
SMALL
GASTEIGER

@<TRIPOS>ATOM
      1 C         143.3335  138.9324  164.4990 C.ar    1  UNL1        0.1390
      2 C         144.2729  140.0222  164.0753 C.ar    1  UNL1        0.0366
      3 C         144.5000  140.2919  162.6173 C.ar    1  UNL1        0.0008
      4 C         143.7876  139.4717  161.5830 C.ar    1  UNL1        0.0021
      5 C         142.8482  138.3819  162.0068 C.ar    1  UNL1       -0.0168
      6 C         142.6211  138.1122  163.4647 C.ar    1  UNL1        0.0327
      7 C         142.2913  137.7427  160.7692 C.3     1  UNL1        0.0520
      8 C         142.8867  138.4376  159.5806 C.2     1  UNL1        0.0074
      9 C         142.9105  138.4722  158.0813 C.2     1  UNL1        0.0976
     10 N         143.8500  139.5620  157.6576 N.2     1  UNL1       -0.1526
     11 N         144.4067  140.2011  158.8951 N.2     1  UNL1       -0.1678
     12 C         143.8114  139.5062  160.0836 C.3     1  UNL1        0.1672
     13 C         142.1316  137.5744  157.1662 C.ar    1  UNL1        0.0265
     14 C         140.8119  137.8953  156.5293 C.ar    1  UNL1        0.0376
     15 S         140.4003  136.7173  155.6969 S.2     1  UNL1       -0.0780
     16 C         141.4657  135.6684  155.8192 C.ar    1  UNL1        0.0711
     17 C         142.5356  136.1981  156.7273 C.ar    1  UNL1        0.0168
     18 C         141.4617  134.3256  155.1509 C.1     1  UNL1       -0.0543
     19 C         141.4576  132.9827  154.4825 C.1     1  UNL1       -0.0388
     20 C         141.4535  131.6397  153.8142 C.3     1  UNL1        0.2814
     21 O         142.5709  130.6719  154.0688 O.3     1  UNL1       -0.4612
     22 C         143.3034  130.6996  155.3774 C.ar    1  UNL1        0.1400
     23 C         142.9264  129.7416  156.4683 C.ar    1  UNL1        0.0369
     24 C         143.6589  129.7692  157.7770 C.ar    1  UNL1        0.0031
     25 C         144.7684  130.7549  157.9948 C.ar    1  UNL1        0.0002
     26 C         145.1454  131.7130  156.9039 C.ar    1  UNL1        0.0031
     27 C         144.4129  131.6853  155.5952 C.ar    1  UNL1        0.0369
     28 O         143.1064  138.6627  165.9570 O.3     1  UNL1       -0.4656
     29 C         142.1608  139.5239  166.7406 C.3     1  UNL1        0.2896
     30 C         143.3650  142.0059  169.5936 C.3     1  UNL1        0.1150
     31 N         142.8620  140.7689  168.9106 N.am    1  UNL1       -0.2730
     32 C         142.5570  139.5397  169.7144 C.3     1  UNL1        0.1150
     33 C         142.6639  140.7610  167.4237 C.2     1  UNL1        0.2703
     34 O         142.9689  141.9902  166.6199 O.2     1  UNL1       -0.2708
@<TRIPOS>BOND
     1    30    31    1
     2    31    32    1
     3    31    33   am
     4    33    34    2
     5    33    29    1
     6    29    28    1
     7    28     1    1
     8     1     2   ar
     9     2     3   ar
    10     3     4   ar
    11     4     5   ar
    12     5     6   ar
    13     5     7    1
    14     7     8    1
    15     8     9    2
    16     9    13    1
    17    13    14   ar
    18    14    15   ar
    19    15    16   ar
    20    16    18    1
    21    18    19    3
    22    19    20    1
    23    20    21    1
    24    21    22    1
    25    22    23   ar
    26    23    24   ar
    27    24    25   ar
    28    25    26   ar
    29    26    27   ar
    30    16    17   ar
    31     9    10    1
    32    10    11    2
    33    11    12    1
    34     6     1   ar
    35    12     8    1
    36    12     4    1
    37    17    13   ar
    38    27    22   ar
@<TRIPOS>MOLECULE
*****
 34 38 0 0 0
SMALL
GASTEIGER

@<TRIPOS>ATOM
      1 C         144.0811  131.0306  155.2860 C.ar    1  UNL1        0.1390
      2 C         142.9017  131.2303  154.3810 C.ar    1  UNL1        0.0366
      3 C         142.1116  132.5035  154.4486 C.ar    1  UNL1        0.0008
      4 C         142.5009  133.5771  155.4211 C.ar    1  UNL1        0.0021
      5 C         143.6803  133.3774  156.3261 C.ar    1  UNL1       -0.0168
      6 C         144.4704  132.1041  156.2585 C.ar    1  UNL1        0.0327
      7 C         143.8247  134.6043  157.1770 C.3     1  UNL1        0.0520
      8 C         142.7345  135.5623  156.7978 C.2     1  UNL1        0.0074
      9 C         142.1500  136.9125  157.0892 C.2     1  UNL1        0.0976
     10 N         140.9705  137.1122  156.1842 N.2     1  UNL1       -0.1526
     11 N         140.8261  135.8853  155.3335 N.2     1  UNL1       -0.1678
     12 C         141.9163  134.9274  155.7126 C.3     1  UNL1        0.1672
     13 C         142.6560  137.8913  158.1070 C.ar    1  UNL1        0.0265
     14 C         143.0093  139.3265  157.8506 C.ar    1  UNL1        0.0376
     15 S         143.4693  139.9290  159.1450 S.2     1  UNL1       -0.0780
     16 C         143.4002  138.8662  160.2014 C.ar    1  UNL1        0.0711
     17 C         142.8976  137.6069  159.5599 C.ar    1  UNL1        0.0168
     18 C         143.7691  139.0334  161.6457 C.1     1  UNL1       -0.0543
     19 C         144.1379  139.2006  163.0899 C.1     1  UNL1       -0.0388
     20 C         144.5067  139.3678  164.5343 C.3     1  UNL1        0.2814
     21 O         143.7410  138.6322  165.5939 O.3     1  UNL1       -0.4612
     22 C         142.2418  138.6076  165.5550 C.ar    1  UNL1        0.1400
     23 C         141.4547  139.6253  166.3262 C.ar    1  UNL1        0.0369
     24 C         139.9554  139.6007  166.2873 C.ar    1  UNL1        0.0031
     25 C         139.2432  138.5584  165.4773 C.ar    1  UNL1        0.0002
     26 C         140.0303  137.5406  164.7061 C.ar    1  UNL1        0.0031
     27 C         141.5295  137.5652  164.7450 C.ar    1  UNL1        0.0369
     28 O         144.8713  129.7574  155.2184 O.3     1  UNL1       -0.4656
     29 C         144.3999  128.5419  155.9603 C.3     1  UNL1        0.2896
     30 C         142.6579  128.0307  159.4894 C.3     1  UNL1        0.1150
     31 N         142.9224  127.9537  158.0149 N.am    1  UNL1       -0.2730
     32 C         141.9741  127.2116  157.1205 C.3     1  UNL1        0.1150
     33 C         144.1354  128.6189  157.4348 C.2     1  UNL1        0.2703
     34 O         145.0837  129.3610  158.3292 O.2     1  UNL1       -0.2708
@<TRIPOS>BOND
     1    30    31    1
     2    31    32    1
     3    31    33   am
     4    33    34    2
     5    33    29    1
     6    29    28    1
     7    28     1    1
     8     1     2   ar
     9     2     3   ar
    10     3     4   ar
    11     4     5   ar
    12     5     6   ar
    13     5     7    1
    14     7     8    1
    15     8     9    2
    16     9    13    1
    17    13    14   ar
    18    14    15   ar
    19    15    16   ar
    20    16    18    1
    21    18    19    3
    22    19    20    1
    23    20    21    1
    24    21    22    1
    25    22    23   ar
    26    23    24   ar
    27    24    25   ar
    28    25    26   ar
    29    26    27   ar
    30    16    17   ar
    31     9    10    1
    32    10    11    2
    33    11    12    1
    34     6     1   ar
    35    12     8    1
    36    12     4    1
    37    17    13   ar
    38    27    22   ar
@<TRIPOS>MOLECULE
*****
 34 38 0 0 0
SMALL
GASTEIGER

@<TRIPOS>ATOM
      1 C         136.5930  142.4443  155.5866 C.ar    1  UNL1        0.1390
      2 C         136.9813  143.7297  154.9182 C.ar    1  UNL1        0.0366
      3 C         138.1175  144.5443  155.4619 C.ar    1  UNL1        0.0008
      4 C         138.8654  144.0734  156.6738 C.ar    1  UNL1        0.0021
      5 C         138.4771  142.7879  157.3421 C.ar    1  UNL1       -0.0168
      6 C         137.3409  141.9733  156.7985 C.ar    1  UNL1        0.0327
      7 C         139.3916  142.5793  158.5127 C.3     1  UNL1        0.0520
      8 C         140.3452  143.7359  158.5678 C.2     1  UNL1        0.0074
      9 C         141.4997  144.3218  159.3252 C.2     1  UNL1        0.0976
     10 N         141.8880  145.6073  158.6569 N.2     1  UNL1       -0.1526
     11 N         140.9735  145.8158  157.4864 N.2     1  UNL1       -0.1678
     12 C         140.0199  144.6593  157.4313 C.3     1  UNL1        0.1672
     13 C         142.1515  143.7267  160.5380 C.ar    1  UNL1        0.0265
     14 C         143.5245  143.1253  160.5956 C.ar    1  UNL1        0.0376
     15 S         143.7663  142.6554  161.9994 S.2     1  UNL1       -0.0780
     16 C         142.5427  142.9665  162.8095 C.ar    1  UNL1        0.0711
     17 C         141.5447  143.6286  161.9064 C.ar    1  UNL1        0.0168
     18 C         142.3509  142.6678  164.2669 C.1     1  UNL1       -0.0543
     19 C         142.1592  142.3693  165.7243 C.1     1  UNL1       -0.0388
     20 C         141.9674  142.0706  167.1818 C.3     1  UNL1        0.2814
     21 O         141.6915  140.6659  167.6296 O.3     1  UNL1       -0.4612
     22 C         140.7090  139.8183  166.8772 C.ar    1  UNL1        0.1400
     23 C         139.2593  139.8295  167.2624 C.ar    1  UNL1        0.0369
     24 C         138.2768  138.9819  166.5100 C.ar    1  UNL1        0.0031
     25 C         138.7439  138.1231  165.3724 C.ar    1  UNL1        0.0002
     26 C         140.1935  138.1118  164.9872 C.ar    1  UNL1        0.0031
     27 C         141.1761  138.9594  165.7396 C.ar    1  UNL1        0.0369
     28 O         135.4568  141.6297  155.0429 O.3     1  UNL1       -0.4656
     29 C         134.7118  140.6879  155.9417 C.3     1  UNL1        0.2896
     30 C         130.9676  139.9184  157.0090 C.3     1  UNL1        0.1150
     31 N         132.4676  139.9188  157.0011 N.am    1  UNL1       -0.2730
     32 C         133.2233  139.1507  158.0445 C.3     1  UNL1        0.1150
     33 C         133.2118  140.6875  155.9497 C.2     1  UNL1        0.2703
     34 O         132.4561  141.4556  154.9063 O.2     1  UNL1       -0.2708
@<TRIPOS>BOND
     1    30    31    1
     2    31    32    1
     3    31    33   am
     4    33    34    2
     5    33    29    1
     6    29    28    1
     7    28     1    1
     8     1     2   ar
     9     2     3   ar
    10     3     4   ar
    11     4     5   ar
    12     5     6   ar
    13     5     7    1
    14     7     8    1
    15     8     9    2
    16     9    13    1
    17    13    14   ar
    18    14    15   ar
    19    15    16   ar
    20    16    18    1
    21    18    19    3
    22    19    20    1
    23    20    21    1
    24    21    22    1
    25    22    23   ar
    26    23    24   ar
    27    24    25   ar
    28    25    26   ar
    29    26    27   ar
    30    16    17   ar
    31     9    10    1
    32    10    11    2
    33    11    12    1
    34     6     1   ar
    35    12     8    1
    36    12     4    1
    37    17    13   ar
    38    27    22   ar
@<TRIPOS>MOLECULE
*****
 34 38 0 0 0
SMALL
GASTEIGER

@<TRIPOS>ATOM
      1 C         143.9913  131.3027  155.3911 C.ar    1  UNL1        0.1390
      2 C         142.7302  131.4071  154.5857 C.ar    1  UNL1        0.0366
      3 C         141.9080  132.6605  154.6386 C.ar    1  UNL1        0.0008
      4 C         142.3469  133.8097  155.4970 C.ar    1  UNL1        0.0021
      5 C         143.6080  133.7053  156.3024 C.ar    1  UNL1       -0.0168
      6 C         144.4302  132.4519  156.2495 C.ar    1  UNL1        0.0327
      7 C         143.7872  134.9924  157.0518 C.3     1  UNL1        0.0520
      8 C         142.6369  135.8921  156.7094 C.2     1  UNL1        0.0074
      9 C         142.0367  137.2436  156.9609 C.2     1  UNL1        0.0976
     10 N         140.7756  137.3479  156.1555 N.2     1  UNL1       -0.1526
     11 N         140.5964  136.0609  155.4062 N.2     1  UNL1       -0.1678
     12 C         141.7467  135.1611  155.7485 C.3     1  UNL1        0.1672
     13 C         142.5989  138.3045  157.8600 C.ar    1  UNL1        0.0265
     14 C         142.9256  139.7139  157.4637 C.ar    1  UNL1        0.0376
     15 S         143.4618  140.4227  158.6720 S.2     1  UNL1       -0.0780
     16 C         143.4664  139.4514  159.8151 C.ar    1  UNL1        0.0711
     17 C         142.9332  138.1423  159.3133 C.ar    1  UNL1        0.0168
     18 C         143.9241  139.7389  161.2144 C.1     1  UNL1       -0.0543
     19 C         144.3817  140.0263  162.6136 C.1     1  UNL1       -0.0388
     20 C         144.8393  140.3137  164.0130 C.3     1  UNL1        0.2814
     21 O         143.9381  141.0483  164.9608 O.3     1  UNL1       -0.4612
     22 C         143.3833  142.3891  164.5809 C.ar    1  UNL1        0.1400
     23 C         144.2936  143.5774  164.4843 C.ar    1  UNL1        0.0369
     24 C         143.7388  144.9182  164.1044 C.ar    1  UNL1        0.0031
     25 C         142.2738  145.0707  163.8210 C.ar    1  UNL1        0.0002
     26 C         141.3635  143.8824  163.9176 C.ar    1  UNL1        0.0031
     27 C         141.9182  142.5416  164.2975 C.ar    1  UNL1        0.0369
     28 O         144.8135  130.0493  155.3382 O.3     1  UNL1       -0.4656
     29 C         144.3518  128.8184  156.0604 C.3     1  UNL1        0.2896
     30 C         142.8143  128.0716  159.6421 C.3     1  UNL1        0.1150
     31 N         143.0385  128.0315  158.1595 N.am    1  UNL1       -0.2730
     32 C         142.1737  127.1644  157.2934 C.3     1  UNL1        0.1150
     33 C         144.1276  128.8585  157.5430 C.2     1  UNL1        0.2703
     34 O         144.9924  129.7256  158.4092 O.2     1  UNL1       -0.2708
@<TRIPOS>BOND
     1    30    31    1
     2    31    32    1
     3    31    33   am
     4    33    34    2
     5    33    29    1
     6    29    28    1
     7    28     1    1
     8     1     2   ar
     9     2     3   ar
    10     3     4   ar
    11     4     5   ar
    12     5     6   ar
    13     5     7    1
    14     7     8    1
    15     8     9    2
    16     9    13    1
    17    13    14   ar
    18    14    15   ar
    19    15    16   ar
    20    16    18    1
    21    18    19    3
    22    19    20    1
    23    20    21    1
    24    21    22    1
    25    22    23   ar
    26    23    24   ar
    27    24    25   ar
    28    25    26   ar
    29    26    27   ar
    30    16    17   ar
    31     9    10    1
    32    10    11    2
    33    11    12    1
    34     6     1   ar
    35    12     8    1
    36    12     4    1
    37    17    13   ar
    38    27    22   ar
@<TRIPOS>MOLECULE
*****
 34 38 0 0 0
SMALL
GASTEIGER

@<TRIPOS>ATOM
      1 C         139.9204  142.9527  165.5940 C.ar    1  UNL1        0.1390
      2 C         139.2821  144.3044  165.4708 C.ar    1  UNL1        0.0366
      3 C         139.2361  144.9936  164.1393 C.ar    1  UNL1        0.0008
      4 C         139.8283  144.3311  162.9310 C.ar    1  UNL1        0.0021
      5 C         140.4666  142.9793  163.0541 C.ar    1  UNL1       -0.0168
      6 C         140.5127  142.2901  164.3856 C.ar    1  UNL1        0.0327
      7 C         140.9638  142.5761  161.6975 C.3     1  UNL1        0.0520
      8 C         140.6327  143.6787  160.7360 C.2     1  UNL1        0.0074
      9 C         140.7354  144.1111  159.3033 C.2     1  UNL1        0.0976
     10 N         140.0970  145.4629  159.1802 N.2     1  UNL1       -0.1526
     11 N         139.5999  145.8660  160.5368 N.2     1  UNL1       -0.1678
     12 C         139.9310  144.7634  161.4983 C.3     1  UNL1        0.1672
     13 C         141.3657  143.3290  158.1894 C.ar    1  UNL1        0.0265
     14 C         141.8078  143.8794  156.8658 C.ar    1  UNL1        0.0376
     15 S         142.3799  142.7497  156.0618 S.2     1  UNL1       -0.0780
     16 C         142.2914  141.5010  156.8884 C.ar    1  UNL1        0.0711
     17 C         141.6646  141.8591  158.2033 C.ar    1  UNL1        0.0168
     18 C         142.7493  140.1344  156.4730 C.1     1  UNL1       -0.0543
     19 C         143.2073  138.7678  156.0575 C.1     1  UNL1       -0.0388
     20 C         143.6652  137.4011  155.6420 C.3     1  UNL1        0.2814
     21 O         143.8500  136.3267  156.6722 O.3     1  UNL1       -0.4612
     22 C         143.3086  134.9498  156.4251 C.ar    1  UNL1        0.1400
     23 C         144.0075  133.7545  157.0021 C.ar    1  UNL1        0.0369
     24 C         143.4662  132.3776  156.7551 C.ar    1  UNL1        0.0031
     25 C         142.2260  132.1959  155.9312 C.ar    1  UNL1        0.0002
     26 C         141.5271  133.3912  155.3543 C.ar    1  UNL1        0.0031
     27 C         142.0684  134.7682  155.6012 C.ar    1  UNL1        0.0369
     28 O         139.9665  142.2635  166.9255 O.3     1  UNL1       -0.4656
     29 C         140.2699  140.7964  167.0005 C.3     1  UNL1        0.2896
     30 C         137.3476  138.1251  167.2724 C.3     1  UNL1        0.1150
     31 N         138.3540  139.0701  166.6858 N.am    1  UNL1       -0.2730
     32 C         138.4509  139.2338  165.1979 C.3     1  UNL1        0.1150
     33 C         139.2635  139.8514  167.5871 C.2     1  UNL1        0.2703
     34 O         139.1667  139.6877  169.0750 O.2     1  UNL1       -0.2708
@<TRIPOS>BOND
     1    30    31    1
     2    31    32    1
     3    31    33   am
     4    33    34    2
     5    33    29    1
     6    29    28    1
     7    28     1    1
     8     1     2   ar
     9     2     3   ar
    10     3     4   ar
    11     4     5   ar
    12     5     6   ar
    13     5     7    1
    14     7     8    1
    15     8     9    2
    16     9    13    1
    17    13    14   ar
    18    14    15   ar
    19    15    16   ar
    20    16    18    1
    21    18    19    3
    22    19    20    1
    23    20    21    1
    24    21    22    1
    25    22    23   ar
    26    23    24   ar
    27    24    25   ar
    28    25    26   ar
    29    26    27   ar
    30    16    17   ar
    31     9    10    1
    32    10    11    2
    33    11    12    1
    34     6     1   ar
    35    12     8    1
    36    12     4    1
    37    17    13   ar
    38    27    22   ar
@<TRIPOS>MOLECULE
*****
 34 38 0 0 0
SMALL
GASTEIGER

@<TRIPOS>ATOM
      1 C         140.3048  142.1817  168.0895 C.ar    1  UNL1        0.1390
      2 C         139.6440  140.9001  168.5026 C.ar    1  UNL1        0.0366
      3 C         139.6400  139.7242  167.5713 C.ar    1  UNL1        0.0008
      4 C         140.2968  139.8299  166.2270 C.ar    1  UNL1        0.0021
      5 C         140.9576  141.1115  165.8139 C.ar    1  UNL1       -0.0168
      6 C         140.9616  142.2874  166.7451 C.ar    1  UNL1        0.0327
      7 C         141.5203  140.9200  164.4366 C.3     1  UNL1        0.0520
      8 C         141.2072  139.5200  163.9986 C.2     1  UNL1        0.0074
      9 C         141.3614  138.5363  162.8767 C.2     1  UNL1        0.0976
     10 N         140.7006  137.2547  163.2898 N.2     1  UNL1       -0.1526
     11 N         140.1380  137.4463  164.6670 N.2     1  UNL1       -0.1678
     12 C         140.4510  138.8463  165.1051 C.3     1  UNL1        0.1672
     13 C         142.0548  138.7898  161.5710 C.ar    1  UNL1        0.0265
     14 C         143.3745  139.4805  161.3929 C.ar    1  UNL1        0.0376
     15 S         143.6855  139.5147  159.9259 S.2     1  UNL1       -0.0780
     16 C         142.5581  138.8451  159.1973 C.ar    1  UNL1        0.0711
     17 C         141.5503  138.3972  160.2140 C.ar    1  UNL1        0.0168
     18 C         142.4564  138.6567  157.7127 C.1     1  UNL1       -0.0543
     19 C         142.3549  138.4682  156.2281 C.1     1  UNL1       -0.0388
     20 C         142.2533  138.2798  154.7433 C.3     1  UNL1        0.2814
     21 O         142.7939  137.0338  154.1068 O.3     1  UNL1       -0.4612
     22 C         142.7287  135.7275  154.8411 C.ar    1  UNL1        0.1400
     23 C         141.5821  134.7901  154.6034 C.ar    1  UNL1        0.0369
     24 C         141.5167  133.4838  155.3377 C.ar    1  UNL1        0.0031
     25 C         142.5980  133.1149  156.3097 C.ar    1  UNL1        0.0002
     26 C         143.7446  134.0523  156.5474 C.ar    1  UNL1        0.0031
     27 C         143.8100  135.3586  155.8131 C.ar    1  UNL1        0.0369
     28 O         140.3088  143.3576  169.0208 O.3     1  UNL1       -0.4656
     29 C         141.0186  143.2678  170.3391 C.3     1  UNL1        0.2896
     30 C         143.2027  140.0084  170.9359 C.3     1  UNL1        0.1150
     31 N         142.7617  141.3425  170.4108 N.am    1  UNL1       -0.2730
     32 C         143.6225  142.0853  169.4326 C.3     1  UNL1        0.1150
     33 C         141.4597  141.9337  170.8641 C.2     1  UNL1        0.2703
     34 O         140.5988  141.1908  171.8424 O.2     1  UNL1       -0.2708
@<TRIPOS>BOND
     1    30    31    1
     2    31    32    1
     3    31    33   am
     4    33    34    2
     5    33    29    1
     6    29    28    1
     7    28     1    1
     8     1     2   ar
     9     2     3   ar
    10     3     4   ar
    11     4     5   ar
    12     5     6   ar
    13     5     7    1
    14     7     8    1
    15     8     9    2
    16     9    13    1
    17    13    14   ar
    18    14    15   ar
    19    15    16   ar
    20    16    18    1
    21    18    19    3
    22    19    20    1
    23    20    21    1
    24    21    22    1
    25    22    23   ar
    26    23    24   ar
    27    24    25   ar
    28    25    26   ar
    29    26    27   ar
    30    16    17   ar
    31     9    10    1
    32    10    11    2
    33    11    12    1
    34     6     1   ar
    35    12     8    1
    36    12     4    1
    37    17    13   ar
    38    27    22   ar
@<TRIPOS>MOLECULE
*****
 34 38 0 0 0
SMALL
GASTEIGER

@<TRIPOS>ATOM
      1 C         139.8225  140.0209  165.7131 C.ar    1  UNL1        0.1390
      2 C         139.3032  141.4271  165.7666 C.ar    1  UNL1        0.0366
      3 C         138.9173  142.1328  164.5005 C.ar    1  UNL1        0.0008
      4 C         139.0508  141.4324  163.1809 C.ar    1  UNL1        0.0021
      5 C         139.5701  140.0262  163.1273 C.ar    1  UNL1       -0.0168
      6 C         139.9559  139.3204  164.3935 C.ar    1  UNL1        0.0327
      7 C         139.5919  139.5944  161.6909 C.3     1  UNL1        0.0520
      8 C         139.0862  140.7339  160.8567 C.2     1  UNL1        0.0074
      9 C         138.7871  141.1713  159.4535 C.2     1  UNL1        0.0976
     10 N         138.2678  142.5775  159.5070 N.2     1  UNL1       -0.1526
     11 N         138.2460  143.0092  160.9434 N.2     1  UNL1       -0.1678
     12 C         138.7517  141.8698  161.7776 C.3     1  UNL1        0.1672
     13 C         138.9745  140.3472  158.2143 C.ar    1  UNL1        0.0265
     14 C         138.3984  140.6454  156.8617 C.ar    1  UNL1        0.0376
     15 S         138.8387  139.5627  155.9214 S.2     1  UNL1       -0.0780
     16 C         139.6868  138.5954  156.6929 C.ar    1  UNL1        0.0711
     17 C         139.7708  139.0803  158.1099 C.ar    1  UNL1        0.0168
     18 C         140.3369  137.3602  156.1438 C.1     1  UNL1       -0.0543
     19 C         140.9869  136.1250  155.5945 C.1     1  UNL1       -0.0388
     20 C         141.6370  134.8897  155.0452 C.3     1  UNL1        0.2814
     21 O         141.4405  133.5704  155.7313 O.3     1  UNL1       -0.4612
     22 C         142.5884  132.9160  156.4411 C.ar    1  UNL1        0.1400
     23 C         143.5542  133.7483  157.2315 C.ar    1  UNL1        0.0369
     24 C         144.7021  133.0939  157.9413 C.ar    1  UNL1        0.0031
     25 C         144.8844  131.6072  157.8608 C.ar    1  UNL1        0.0002
     26 C         143.9187  130.7749  157.0705 C.ar    1  UNL1        0.0031
     27 C         142.7707  131.4293  156.3606 C.ar    1  UNL1        0.0369
     28 O         140.2083  139.3152  166.9792 O.3     1  UNL1       -0.4656
     29 C         140.4365  140.1011  168.2363 C.3     1  UNL1        0.2896
     30 C         143.5127  142.2779  169.4808 C.3     1  UNL1        0.1150
     31 N         142.1198  141.8910  169.0806 N.am    1  UNL1       -0.2730
     32 C         141.0173  142.9071  169.1246 C.3     1  UNL1        0.1150
     33 C         141.8294  140.4880  168.6364 C.2     1  UNL1        0.2703
     34 O         142.9320  139.4719  168.5925 O.2     1  UNL1       -0.2708
@<TRIPOS>BOND
     1    30    31    1
     2    31    32    1
     3    31    33   am
     4    33    34    2
     5    33    29    1
     6    29    28    1
     7    28     1    1
     8     1     2   ar
     9     2     3   ar
    10     3     4   ar
    11     4     5   ar
    12     5     6   ar
    13     5     7    1
    14     7     8    1
    15     8     9    2
    16     9    13    1
    17    13    14   ar
    18    14    15   ar
    19    15    16   ar
    20    16    18    1
    21    18    19    3
    22    19    20    1
    23    20    21    1
    24    21    22    1
    25    22    23   ar
    26    23    24   ar
    27    24    25   ar
    28    25    26   ar
    29    26    27   ar
    30    16    17   ar
    31     9    10    1
    32    10    11    2
    33    11    12    1
    34     6     1   ar
    35    12     8    1
    36    12     4    1
    37    17    13   ar
    38    27    22   ar
