@<TRIPOS>MOLECULE
*****
 38 41 0 0 0
SMALL
GASTEIGER

@<TRIPOS>ATOM
      1 C         147.0514  141.8691  154.2816 C.2     1  UNL1        0.4050
      2 O         147.6334  141.3345  153.0066 O.2     1  UNL1       -0.2262
      3 N         146.0339  141.0660  155.0362 N.am    1  UNL1       -0.2450
      4 C         145.5042  139.7193  154.6413 C.3     1  UNL1        0.1063
      5 C         144.5103  139.2896  155.6794 C.3     1  UNL1        0.1070
      6 C         144.4257  140.3706  156.7158 C.3     1  UNL1        0.1069
      7 C         145.3674  141.4685  156.3184 C.3     1  UNL1        0.1063
      8 C         143.7368  138.0043  155.6807 C.2     1  UNL1        0.2289
      9 O         142.2611  138.0174  155.9495 O.2     1  UNL1       -0.2747
     10 N         144.4389  136.7061  155.4132 N.am    1  UNL1       -0.2693
     11 H         145.4074  136.6975  155.2367 H       1  UNL1        0.1563
     12 C         143.6654  135.4209  155.4145 C.ar    1  UNL1        0.1342
     13 C         142.8044  135.0626  154.2397 C.ar    1  UNL1        0.0354
     14 C         142.0309  133.7774  154.2410 C.ar    1  UNL1        0.0158
     15 C         142.1184  132.8506  155.4172 C.ar    1  UNL1        0.0769
     16 CL        141.3449  131.5653  155.4185 Cl      1  UNL1       -0.0806
     17 C         142.9794  133.2089  156.5920 C.ar    1  UNL1        0.1116
     18 N         143.7529  134.4941  156.5906 N.ar    1  UNL1       -0.2281
     19 C         143.5528  140.3561  157.9355 C.2     1  UNL1        0.2279
     20 O         142.8331  141.6027  158.3576 O.2     1  UNL1       -0.2747
     21 N         143.3996  139.0951  158.7333 N.am    1  UNL1       -0.2821
     22 H         143.8720  138.2770  158.4563 H       1  UNL1        0.1549
     23 C         142.5267  139.0806  159.9530 C.ar    1  UNL1        0.0782
     24 C         141.0982  138.6353  159.8477 C.ar    1  UNL1        0.0184
     25 C         140.2252  138.6207  161.0674 C.ar    1  UNL1        0.0190
     26 C         140.7808  139.0516  162.3925 C.ar    1  UNL1        0.0692
     27 C         142.2093  139.4969  162.4978 C.ar    1  UNL1        0.0485
     28 C         143.0822  139.5114  161.2781 C.ar    1  UNL1        0.1549
     29 F         144.5107  139.9568  161.3834 F       1  UNL1       -0.2028
     30 N         139.9079  139.0371  163.6122 N.ar    1  UNL1       -0.2731
     31 C         139.6102  137.7409  164.3060 C.ar    1  UNL1        0.0829
     32 C         138.7373  137.7263  165.5259 C.ar    1  UNL1        0.0192
     33 C         138.1620  139.0079  166.0518 C.ar    1  UNL1        0.0064
     34 C         138.4597  140.3040  165.3579 C.ar    1  UNL1        0.0611
     35 C         139.3326  140.3187  164.1382 C.ar    1  UNL1        0.2648
     36 O         139.6303  141.6148  163.4444 O.2     1  UNL1       -0.2666
     37 C         147.1432  144.4547  154.0436 C.3     1  UNL1        0.2573
     38 O         147.4870  143.2069  154.8018 O.3     1  UNL1       -0.4304
@<TRIPOS>BOND
     1    37    38    1
     2    38     1    1
     3     1     2    2
     4     1     3   am
     5     3     4    1
     6     4     5    1
     7     5     8    1
     8     8     9    2
     9     8    10   am
    10    10    12    1
    11    12    13   ar
    12    13    14   ar
    13    14    15   ar
    14    15    16    1
    15    15    17   ar
    16    17    18   ar
    17     5     6    1
    18     6    19    1
    19    19    20    2
    20    19    21   am
    21    21    23    1
    22    23    24   ar
    23    24    25   ar
    24    25    26   ar
    25    26    30    1
    26    30    31   ar
    27    31    32   ar
    28    32    33   ar
    29    33    34   ar
    30    34    35   ar
    31    35    36    2
    32    26    27   ar
    33    27    28   ar
    34    28    29    1
    35     6     7    1
    36     7     3    1
    37    18    12   ar
    38    28    23   ar
    39    35    30   ar
    40    10    11    1
    41    21    22    1
@<TRIPOS>MOLECULE
*****
 38 41 0 0 0
SMALL
GASTEIGER

@<TRIPOS>ATOM
      1 C         143.0919  133.6714  155.9222 C.2     1  UNL1        0.4050
      2 O         143.6797  133.1628  154.6393 O.2     1  UNL1       -0.2262
      3 N         143.1533  135.1345  156.2471 N.am    1  UNL1       -0.2450
      4 C         143.7671  136.2028  155.3914 C.3     1  UNL1        0.1063
      5 C         143.6047  137.5147  156.1002 C.3     1  UNL1        0.1070
      6 C         142.8906  137.2574  157.3939 C.3     1  UNL1        0.1069
      7 C         142.6115  135.7864  157.4847 C.3     1  UNL1        0.1063
      8 C         144.0742  138.8497  155.6026 C.2     1  UNL1        0.2289
      9 O         143.0942  139.8126  155.0006 O.2     1  UNL1       -0.2747
     10 N         145.5235  139.2217  155.7070 N.am    1  UNL1       -0.2693
     11 H         146.1667  138.5897  156.1021 H       1  UNL1        0.1563
     12 C         145.9930  140.5566  155.2093 C.ar    1  UNL1        0.1342
     13 C         146.4282  141.6099  156.1846 C.ar    1  UNL1        0.0354
     14 C         146.8976  142.9448  155.6870 C.ar    1  UNL1        0.0158
     15 C         146.9318  143.2264  154.2140 C.ar    1  UNL1        0.0769
     16 CL        147.4012  144.5614  153.7164 Cl      1  UNL1       -0.0806
     17 C         146.4966  142.1731  153.2388 C.ar    1  UNL1        0.1116
     18 N         146.0272  140.8383  153.7364 N.ar    1  UNL1       -0.2281
     19 C         142.5205  138.2898  158.4171 C.2     1  UNL1        0.2279
     20 O         143.5936  139.0620  159.1257 O.2     1  UNL1       -0.2747
     21 N         141.0771  138.5501  158.7319 N.am    1  UNL1       -0.2821
     22 H         140.3727  138.0432  158.2669 H       1  UNL1        0.1549
     23 C         140.7069  139.5825  159.7551 C.ar    1  UNL1        0.0782
     24 C         140.3451  140.9721  159.3215 C.ar    1  UNL1        0.0184
     25 C         139.9749  142.0046  160.3447 C.ar    1  UNL1        0.0190
     26 C         139.9665  141.6474  161.8015 C.ar    1  UNL1        0.0692
     27 C         140.3283  140.2578  162.2351 C.ar    1  UNL1        0.0485
     28 C         140.6985  139.2253  161.2120 C.ar    1  UNL1        0.1549
     29 F         141.0603  137.8357  161.6456 F       1  UNL1       -0.2028
     30 N         139.5962  142.6799  162.8247 N.ar    1  UNL1       -0.2731
     31 C         140.6517  143.5756  163.4022 C.ar    1  UNL1        0.0829
     32 C         140.2816  144.6082  164.4255 C.ar    1  UNL1        0.0192
     33 C         138.8559  144.7448  164.8712 C.ar    1  UNL1        0.0064
     34 C         137.8004  143.8490  164.2938 C.ar    1  UNL1        0.0611
     35 C         138.1705  142.8166  163.2706 C.ar    1  UNL1        0.2648
     36 O         137.1150  141.9208  162.6931 O.2     1  UNL1       -0.2666
     37 C         142.9400  131.3057  156.9854 C.3     1  UNL1        0.2573
     38 O         142.4427  132.7170  156.8801 O.3     1  UNL1       -0.4304
@<TRIPOS>BOND
     1    37    38    1
     2    38     1    1
     3     1     2    2
     4     1     3   am
     5     3     4    1
     6     4     5    1
     7     5     8    1
     8     8     9    2
     9     8    10   am
    10    10    12    1
    11    12    13   ar
    12    13    14   ar
    13    14    15   ar
    14    15    16    1
    15    15    17   ar
    16    17    18   ar
    17     5     6    1
    18     6    19    1
    19    19    20    2
    20    19    21   am
    21    21    23    1
    22    23    24   ar
    23    24    25   ar
    24    25    26   ar
    25    26    30    1
    26    30    31   ar
    27    31    32   ar
    28    32    33   ar
    29    33    34   ar
    30    34    35   ar
    31    35    36    2
    32    26    27   ar
    33    27    28   ar
    34    28    29    1
    35     6     7    1
    36     7     3    1
    37    18    12   ar
    38    28    23   ar
    39    35    30   ar
    40    10    11    1
    41    21    22    1
@<TRIPOS>MOLECULE
*****
 38 41 0 0 0
SMALL
GASTEIGER

@<TRIPOS>ATOM
      1 C         143.3663  132.6013  155.5809 C.2     1  UNL1        0.4050
      2 O         142.7165  131.7906  154.4990 O.2     1  UNL1       -0.2262
      3 N         142.8839  133.9922  155.8683 N.am    1  UNL1       -0.2450
      4 C         141.7679  134.7022  155.1607 C.3     1  UNL1        0.1063
      5 C         141.6271  136.0661  155.7688 C.3     1  UNL1        0.1070
      6 C         142.6559  136.1991  156.8522 C.3     1  UNL1        0.1069
      7 C         143.4327  134.9174  156.9137 C.3     1  UNL1        0.1063
      8 C         140.6320  137.1132  155.3645 C.2     1  UNL1        0.2289
      9 O         141.0902  138.3417  154.6359 O.2     1  UNL1       -0.2747
     10 N         139.1787  136.9318  155.6887 N.am    1  UNL1       -0.2693
     11 H         138.8780  136.1254  156.1669 H       1  UNL1        0.1563
     12 C         138.1836  137.9788  155.2843 C.ar    1  UNL1        0.1342
     13 C         137.2503  137.7237  154.1381 C.ar    1  UNL1        0.0354
     14 C         136.2553  138.7708  153.7338 C.ar    1  UNL1        0.0158
     15 C         136.1936  140.0730  154.4757 C.ar    1  UNL1        0.0769
     16 CL        135.1984  141.1201  154.0714 Cl      1  UNL1       -0.0806
     17 C         137.1268  140.3281  155.6219 C.ar    1  UNL1        0.1116
     18 N         138.1219  139.2811  156.0262 N.ar    1  UNL1       -0.2281
     19 C         142.8703  137.4026  157.7215 C.2     1  UNL1        0.2279
     20 O         143.4052  138.6716  157.1269 O.2     1  UNL1       -0.2747
     21 N         142.5497  137.3372  159.1854 N.am    1  UNL1       -0.2821
     22 H         142.1986  136.5043  159.5756 H       1  UNL1        0.1549
     23 C         142.7641  138.5406  160.0547 C.ar    1  UNL1        0.0782
     24 C         144.0900  138.7574  160.7217 C.ar    1  UNL1        0.0184
     25 C         144.3045  139.9608  161.5910 C.ar    1  UNL1        0.0190
     26 C         143.1929  140.9474  161.7934 C.ar    1  UNL1        0.0692
     27 C         141.8669  140.7306  161.1264 C.ar    1  UNL1        0.0485
     28 C         141.6525  139.5272  160.2571 C.ar    1  UNL1        0.1549
     29 F         140.3265  139.3104  159.5902 F       1  UNL1       -0.2028
     30 N         143.4072  142.1509  162.6627 N.ar    1  UNL1       -0.2731
     31 C         143.5339  141.9897  164.1486 C.ar    1  UNL1        0.0829
     32 C         143.7483  143.1932  165.0181 C.ar    1  UNL1        0.0192
     33 C         143.8359  144.5578  164.4015 C.ar    1  UNL1        0.0064
     34 C         143.7092  144.7189  162.9156 C.ar    1  UNL1        0.0611
     35 C         143.4949  143.5156  162.0462 C.ar    1  UNL1        0.2648
     36 O         143.3681  143.6767  160.5603 O.2     1  UNL1       -0.2666
     37 C         144.8404  130.5666  156.2423 C.3     1  UNL1        0.2573
     38 O         144.4986  132.0210  156.3755 O.3     1  UNL1       -0.4304
@<TRIPOS>BOND
     1    37    38    1
     2    38     1    1
     3     1     2    2
     4     1     3   am
     5     3     4    1
     6     4     5    1
     7     5     8    1
     8     8     9    2
     9     8    10   am
    10    10    12    1
    11    12    13   ar
    12    13    14   ar
    13    14    15   ar
    14    15    16    1
    15    15    17   ar
    16    17    18   ar
    17     5     6    1
    18     6    19    1
    19    19    20    2
    20    19    21   am
    21    21    23    1
    22    23    24   ar
    23    24    25   ar
    24    25    26   ar
    25    26    30    1
    26    30    31   ar
    27    31    32   ar
    28    32    33   ar
    29    33    34   ar
    30    34    35   ar
    31    35    36    2
    32    26    27   ar
    33    27    28   ar
    34    28    29    1
    35     6     7    1
    36     7     3    1
    37    18    12   ar
    38    28    23   ar
    39    35    30   ar
    40    10    11    1
    41    21    22    1
@<TRIPOS>MOLECULE
*****
 38 41 0 0 0
SMALL
GASTEIGER

@<TRIPOS>ATOM
      1 C         141.6074  136.7564  155.2423 C.2     1  UNL1        0.4050
      2 O         141.0690  135.4070  155.6150 O.2     1  UNL1       -0.2262
      3 N         140.7056  137.9549  155.2604 N.am    1  UNL1       -0.2450
      4 C         139.2512  137.9585  155.6279 C.3     1  UNL1        0.1063
      5 C         138.7466  139.3661  155.5089 C.3     1  UNL1        0.1070
      6 C         139.8890  140.2324  155.0679 C.3     1  UNL1        0.1069
      7 C         141.0997  139.3603  154.9144 C.3     1  UNL1        0.1063
      8 C         137.3455  139.8264  155.7828 C.2     1  UNL1        0.2289
      9 O         137.0900  140.8695  156.8300 O.2     1  UNL1       -0.2747
     10 N         136.1999  139.2438  155.0094 N.am    1  UNL1       -0.2693
     11 H         136.3676  138.5592  154.3221 H       1  UNL1        0.1563
     12 C         134.7988  139.7041  155.2833 C.ar    1  UNL1        0.1342
     13 C         134.2493  140.9018  154.5667 C.ar    1  UNL1        0.0354
     14 C         132.8482  141.3621  154.8406 C.ar    1  UNL1        0.0158
     15 C         131.9966  140.6247  155.8311 C.ar    1  UNL1        0.0769
     16 CL        130.5955  141.0851  156.1050 Cl      1  UNL1       -0.0806
     17 C         132.5461  139.4270  156.5477 C.ar    1  UNL1        0.1116
     18 N         133.9472  138.9667  156.2738 N.ar    1  UNL1       -0.2281
     19 C         139.8308  141.7111  154.8235 C.2     1  UNL1        0.2279
     20 O         140.1232  142.2577  153.4576 O.2     1  UNL1       -0.2747
     21 N         139.4802  142.6435  155.9451 N.am    1  UNL1       -0.2821
     22 H         139.2883  142.2848  156.8416 H       1  UNL1        0.1549
     23 C         139.4220  144.1223  155.7007 C.ar    1  UNL1        0.0782
     24 C         140.6520  144.9615  155.8824 C.ar    1  UNL1        0.0184
     25 C         140.5939  146.4403  155.6380 C.ar    1  UNL1        0.0190
     26 C         139.3057  147.0799  155.2120 C.ar    1  UNL1        0.0692
     27 C         138.0758  146.2408  155.0304 C.ar    1  UNL1        0.0485
     28 C         138.1339  144.7620  155.2747 C.ar    1  UNL1        0.1549
     29 F         136.9039  143.9228  155.0930 F       1  UNL1       -0.2028
     30 N         139.2475  148.5587  154.9677 N.ar    1  UNL1       -0.2731
     31 C         139.6864  149.1185  153.6471 C.ar    1  UNL1        0.0829
     32 C         139.6282  150.5974  153.4026 C.ar    1  UNL1        0.0192
     33 C         139.1312  151.5164  154.4788 C.ar    1  UNL1        0.0064
     34 C         138.6923  150.9566  155.7994 C.ar    1  UNL1        0.0611
     35 C         138.7504  149.4778  156.0439 C.ar    1  UNL1        0.2648
     36 O         138.3115  148.9181  157.3645 O.2     1  UNL1       -0.2666
     37 C         144.0950  136.0534  155.5022 C.3     1  UNL1        0.2573
     38 O         143.0477  136.9074  154.8513 O.3     1  UNL1       -0.4304
@<TRIPOS>BOND
     1    37    38    1
     2    38     1    1
     3     1     2    2
     4     1     3   am
     5     3     4    1
     6     4     5    1
     7     5     8    1
     8     8     9    2
     9     8    10   am
    10    10    12    1
    11    12    13   ar
    12    13    14   ar
    13    14    15   ar
    14    15    16    1
    15    15    17   ar
    16    17    18   ar
    17     5     6    1
    18     6    19    1
    19    19    20    2
    20    19    21   am
    21    21    23    1
    22    23    24   ar
    23    24    25   ar
    24    25    26   ar
    25    26    30    1
    26    30    31   ar
    27    31    32   ar
    28    32    33   ar
    29    33    34   ar
    30    34    35   ar
    31    35    36    2
    32    26    27   ar
    33    27    28   ar
    34    28    29    1
    35     6     7    1
    36     7     3    1
    37    18    12   ar
    38    28    23   ar
    39    35    30   ar
    40    10    11    1
    41    21    22    1
@<TRIPOS>MOLECULE
*****
 38 41 0 0 0
SMALL
GASTEIGER

@<TRIPOS>ATOM
      1 C         137.5627  143.4695  154.7845 C.2     1  UNL1        0.4050
      2 O         136.9748  144.7323  155.3410 O.2     1  UNL1       -0.2262
      3 N         138.0826  142.4118  155.7124 N.am    1  UNL1       -0.2450
      4 C         138.0817  142.4757  157.2111 C.3     1  UNL1        0.1063
      5 C         138.6931  141.2078  157.7294 C.3     1  UNL1        0.1070
      6 C         139.0719  140.3603  156.5511 C.3     1  UNL1        0.1069
      7 C         138.6945  141.1044  155.3046 C.3     1  UNL1        0.1063
      8 C         138.8911  140.8503  159.1727 C.2     1  UNL1        0.2289
      9 O         140.0125  141.4708  159.9521 O.2     1  UNL1       -0.2747
     10 N         137.9677  139.8722  159.8365 N.am    1  UNL1       -0.2693
     11 H         137.2317  139.4650  159.3250 H       1  UNL1        0.1563
     12 C         138.1656  139.5147  161.2798 C.ar    1  UNL1        0.1342
     13 C         138.6555  138.1471  161.6533 C.ar    1  UNL1        0.0354
     14 C         138.8534  137.7896  163.0965 C.ar    1  UNL1        0.0158
     15 C         138.5614  138.7997  164.1663 C.ar    1  UNL1        0.0769
     16 CL        138.7593  138.4422  165.6096 Cl      1  UNL1       -0.0806
     17 C         138.0714  140.1673  163.7928 C.ar    1  UNL1        0.1116
     18 N         137.8735  140.5248  162.3496 N.ar    1  UNL1       -0.2281
     19 C         139.7150  139.0065  156.6093 C.2     1  UNL1        0.2279
     20 O         139.2288  137.9869  157.5963 O.2     1  UNL1       -0.2747
     21 N         140.8444  138.6721  155.6805 N.am    1  UNL1       -0.2821
     22 H         141.1635  139.3413  155.0327 H       1  UNL1        0.1549
     23 C         141.4876  137.3183  155.7386 C.ar    1  UNL1        0.0782
     24 C         142.8901  137.1757  156.2511 C.ar    1  UNL1        0.0184
     25 C         143.5334  135.8219  156.3092 C.ar    1  UNL1        0.0190
     26 C         142.7741  134.6107  155.8548 C.ar    1  UNL1        0.0692
     27 C         141.3717  134.7533  155.3423 C.ar    1  UNL1        0.0485
     28 C         140.7284  136.1071  155.2842 C.ar    1  UNL1        0.1549
     29 F         139.3259  136.2497  154.7717 F       1  UNL1       -0.2028
     30 N         143.4174  133.2569  155.9130 N.ar    1  UNL1       -0.2731
     31 C         143.3485  132.3423  154.7260 C.ar    1  UNL1        0.0829
     32 C         143.9918  130.9884  154.7840 C.ar    1  UNL1        0.0192
     33 C         144.7038  130.5491  156.0291 C.ar    1  UNL1        0.0064
     34 C         144.7726  131.4637  157.2160 C.ar    1  UNL1        0.0611
     35 C         144.1294  132.8175  157.1580 C.ar    1  UNL1        0.2648
     36 O         144.1982  133.7321  158.3449 O.2     1  UNL1       -0.2666
     37 C         136.4835  142.6220  152.5783 C.3     1  UNL1        0.2573
     38 O         137.6308  143.2644  153.3001 O.3     1  UNL1       -0.4304
@<TRIPOS>BOND
     1    37    38    1
     2    38     1    1
     3     1     2    2
     4     1     3   am
     5     3     4    1
     6     4     5    1
     7     5     8    1
     8     8     9    2
     9     8    10   am
    10    10    12    1
    11    12    13   ar
    12    13    14   ar
    13    14    15   ar
    14    15    16    1
    15    15    17   ar
    16    17    18   ar
    17     5     6    1
    18     6    19    1
    19    19    20    2
    20    19    21   am
    21    21    23    1
    22    23    24   ar
    23    24    25   ar
    24    25    26   ar
    25    26    30    1
    26    30    31   ar
    27    31    32   ar
    28    32    33   ar
    29    33    34   ar
    30    34    35   ar
    31    35    36    2
    32    26    27   ar
    33    27    28   ar
    34    28    29    1
    35     6     7    1
    36     7     3    1
    37    18    12   ar
    38    28    23   ar
    39    35    30   ar
    40    10    11    1
    41    21    22    1
@<TRIPOS>MOLECULE
*****
 38 41 0 0 0
SMALL
GASTEIGER

@<TRIPOS>ATOM
      1 C         139.3525  148.3717  154.9023 C.2     1  UNL1        0.4050
      2 O         139.6136  148.4809  153.4292 O.2     1  UNL1       -0.2262
      3 N         139.8515  147.1812  155.6662 N.am    1  UNL1       -0.2450
      4 C         140.6218  146.0272  155.0959 C.3     1  UNL1        0.1063
      5 C         140.9142  145.0685  156.2118 C.3     1  UNL1        0.1070
      6 C         140.3247  145.6297  157.4717 C.3     1  UNL1        0.1069
      7 C         139.6679  146.9355  157.1345 C.3     1  UNL1        0.1063
      8 C         141.6645  143.7753  156.0892 C.2     1  UNL1        0.2289
      9 O         143.1414  143.7871  155.8274 O.2     1  UNL1       -0.2747
     10 N         140.9378  142.4705  156.2284 N.am    1  UNL1       -0.2693
     11 H         139.9685  142.4628  156.4002 H       1  UNL1        0.1563
     12 C         141.6881  141.1774  156.1058 C.ar    1  UNL1        0.1342
     13 C         142.2701  140.5292  157.3269 C.ar    1  UNL1        0.0354
     14 C         143.0203  139.2362  157.2043 C.ar    1  UNL1        0.0158
     15 C         143.1886  138.5912  155.8605 C.ar    1  UNL1        0.0769
     16 CL        143.9389  137.2981  155.7379 Cl      1  UNL1       -0.0806
     17 C         142.6067  139.2394  154.6394 C.ar    1  UNL1        0.1116
     18 N         141.8564  140.5324  154.7620 N.ar    1  UNL1       -0.2281
     19 C         140.3819  144.9964  158.8302 C.2     1  UNL1        0.2279
     20 O         139.3735  143.9548  159.2153 O.2     1  UNL1       -0.2747
     21 N         141.4475  145.4047  159.8038 N.am    1  UNL1       -0.2821
     22 H         142.1094  146.0883  159.5510 H       1  UNL1        0.1549
     23 C         141.5048  144.7714  161.1623 C.ar    1  UNL1        0.0782
     24 C         142.2619  143.4920  161.3620 C.ar    1  UNL1        0.0184
     25 C         142.3193  142.8587  162.7205 C.ar    1  UNL1        0.0190
     26 C         141.6195  143.5048  163.8793 C.ar    1  UNL1        0.0692
     27 C         140.8624  144.7843  163.6796 C.ar    1  UNL1        0.0485
     28 C         140.8051  145.4176  162.3211 C.ar    1  UNL1        0.1549
     29 F         140.0480  146.6970  162.1214 F       1  UNL1       -0.2028
     30 N         141.6768  142.8716  165.2379 N.ar    1  UNL1       -0.2731
     31 C         140.4250  142.3410  165.8714 C.ar    1  UNL1        0.0829
     32 C         140.4822  141.7077  167.2301 C.ar    1  UNL1        0.0192
     33 C         141.7913  141.6050  167.9551 C.ar    1  UNL1        0.0064
     34 C         143.0431  142.1356  167.3215 C.ar    1  UNL1        0.0611
     35 C         142.9859  142.7688  165.9630 C.ar    1  UNL1        0.2648
     36 O         144.2378  143.2994  165.3294 O.2     1  UNL1       -0.2666
     37 C         138.8409  150.8923  155.2697 C.3     1  UNL1        0.2573
     38 O         138.5924  149.4531  155.6115 O.3     1  UNL1       -0.4304
@<TRIPOS>BOND
     1    37    38    1
     2    38     1    1
     3     1     2    2
     4     1     3   am
     5     3     4    1
     6     4     5    1
     7     5     8    1
     8     8     9    2
     9     8    10   am
    10    10    12    1
    11    12    13   ar
    12    13    14   ar
    13    14    15   ar
    14    15    16    1
    15    15    17   ar
    16    17    18   ar
    17     5     6    1
    18     6    19    1
    19    19    20    2
    20    19    21   am
    21    21    23    1
    22    23    24   ar
    23    24    25   ar
    24    25    26   ar
    25    26    30    1
    26    30    31   ar
    27    31    32   ar
    28    32    33   ar
    29    33    34   ar
    30    34    35   ar
    31    35    36    2
    32    26    27   ar
    33    27    28   ar
    34    28    29    1
    35     6     7    1
    36     7     3    1
    37    18    12   ar
    38    28    23   ar
    39    35    30   ar
    40    10    11    1
    41    21    22    1
@<TRIPOS>MOLECULE
*****
 38 41 0 0 0
SMALL
GASTEIGER

@<TRIPOS>ATOM
      1 C         142.5874  135.8050  156.3514 C.2     1  UNL1        0.4050
      2 O         142.9882  134.6811  157.2604 O.2     1  UNL1       -0.2262
      3 N         142.4943  137.2039  156.8846 N.am    1  UNL1       -0.2450
      4 C         142.7705  137.6297  158.2962 C.3     1  UNL1        0.1063
      5 C         142.5555  139.1116  158.3838 C.3     1  UNL1        0.1070
      6 C         142.1465  139.6018  157.0264 C.3     1  UNL1        0.1069
      7 C         142.1087  138.4228  156.0999 C.3     1  UNL1        0.1063
      8 C         142.7206  139.9553  159.6131 C.2     1  UNL1        0.2289
      9 O         141.5474  140.7050  160.1712 O.2     1  UNL1       -0.2747
     10 N         144.0588  140.0492  160.2841 N.am    1  UNL1       -0.2693
     11 H         144.8288  139.5572  159.9178 H       1  UNL1        0.1563
     12 C         144.2238  140.8929  161.5134 C.ar    1  UNL1        0.1342
     13 C         144.2926  140.2446  162.8643 C.ar    1  UNL1        0.0354
     14 C         144.4577  141.0883  164.0935 C.ar    1  UNL1        0.0158
     15 C         144.5540  142.5802  163.9718 C.ar    1  UNL1        0.0769
     16 CL        144.7190  143.4239  165.2010 Cl      1  UNL1       -0.0806
     17 C         144.4852  143.2285  162.6209 C.ar    1  UNL1        0.1116
     18 N         144.3201  142.3849  161.3917 N.ar    1  UNL1       -0.2281
     19 C         141.8308  141.0216  156.6600 C.2     1  UNL1        0.2279
     20 O         142.5913  141.6989  155.5586 O.2     1  UNL1       -0.2747
     21 N         140.7546  141.7643  157.3950 N.am    1  UNL1       -0.2821
     22 H         140.2555  141.3199  158.1179 H       1  UNL1        0.1549
     23 C         140.4388  143.1842  157.0286 C.ar    1  UNL1        0.0782
     24 C         139.2798  143.4857  156.1254 C.ar    1  UNL1        0.0184
     25 C         138.9640  144.9055  155.7590 C.ar    1  UNL1        0.0190
     26 C         139.8072  146.0239  156.2959 C.ar    1  UNL1        0.0692
     27 C         140.9662  145.7224  157.1991 C.ar    1  UNL1        0.0485
     28 C         141.2820  144.3026  157.5655 C.ar    1  UNL1        0.1549
     29 F         142.4410  144.0011  158.4687 F       1  UNL1       -0.2028
     30 N         139.4914  147.4438  155.9295 N.ar    1  UNL1       -0.2731
     31 C         138.7125  148.3073  156.8769 C.ar    1  UNL1        0.0829
     32 C         138.3967  149.7272  156.5106 C.ar    1  UNL1        0.0192
     33 C         138.8598  150.2836  155.1969 C.ar    1  UNL1        0.0064
     34 C         139.6387  149.4201  154.2494 C.ar    1  UNL1        0.0611
     35 C         139.9545  148.0002  154.6157 C.ar    1  UNL1        0.2648
     36 O         140.7335  147.1367  153.6683 O.2     1  UNL1       -0.2666
     37 C         142.3126  134.1230  154.3905 C.3     1  UNL1        0.2573
     38 O         142.2798  135.5300  154.9093 O.3     1  UNL1       -0.4304
@<TRIPOS>BOND
     1    37    38    1
     2    38     1    1
     3     1     2    2
     4     1     3   am
     5     3     4    1
     6     4     5    1
     7     5     8    1
     8     8     9    2
     9     8    10   am
    10    10    12    1
    11    12    13   ar
    12    13    14   ar
    13    14    15   ar
    14    15    16    1
    15    15    17   ar
    16    17    18   ar
    17     5     6    1
    18     6    19    1
    19    19    20    2
    20    19    21   am
    21    21    23    1
    22    23    24   ar
    23    24    25   ar
    24    25    26   ar
    25    26    30    1
    26    30    31   ar
    27    31    32   ar
    28    32    33   ar
    29    33    34   ar
    30    34    35   ar
    31    35    36    2
    32    26    27   ar
    33    27    28   ar
    34    28    29    1
    35     6     7    1
    36     7     3    1
    37    18    12   ar
    38    28    23   ar
    39    35    30   ar
    40    10    11    1
    41    21    22    1
@<TRIPOS>MOLECULE
*****
 38 41 0 0 0
SMALL
GASTEIGER

@<TRIPOS>ATOM
      1 C         138.7282  138.7493  164.2114 C.2     1  UNL1        0.4050
      2 O         138.9096  137.2798  164.4516 O.2     1  UNL1       -0.2262
      3 N         138.8999  139.3103  162.8309 N.am    1  UNL1       -0.2450
      4 C         139.2505  138.5293  161.5990 C.3     1  UNL1        0.1063
      5 C         139.3184  139.4872  160.4467 C.3     1  UNL1        0.1070
      6 C         139.0098  140.8601  160.9663 C.3     1  UNL1        0.1069
      7 C         138.7512  140.7508  162.4397 C.3     1  UNL1        0.1063
      8 C         139.6386  139.1341  159.0244 C.2     1  UNL1        0.2289
      9 O         138.6325  139.3932  157.9425 O.2     1  UNL1       -0.2747
     10 N         140.9650  138.5218  158.6841 N.am    1  UNL1       -0.2693
     11 H         141.6254  138.3518  159.3942 H       1  UNL1        0.1563
     12 C         141.2853  138.1687  157.2618 C.ar    1  UNL1        0.1342
     13 C         140.7475  136.9025  156.6641 C.ar    1  UNL1        0.0354
     14 C         141.0678  136.5494  155.2419 C.ar    1  UNL1        0.0158
     15 C         141.9258  137.4626  154.4174 C.ar    1  UNL1        0.0769
     16 CL        142.2461  137.1094  152.9951 Cl      1  UNL1       -0.0806
     17 C         142.4636  138.7288  155.0151 C.ar    1  UNL1        0.1116
     18 N         142.1434  139.0819  156.4373 N.ar    1  UNL1       -0.2281
     19 C         138.9674  142.1209  160.1548 C.2     1  UNL1        0.2279
     20 O         138.0952  143.2621  160.5870 O.2     1  UNL1       -0.2747
     21 N         139.7972  142.2405  158.9109 N.am    1  UNL1       -0.2821
     22 H         140.3697  141.4915  158.6272 H       1  UNL1        0.1549
     23 C         139.7549  143.5013  158.0994 C.ar    1  UNL1        0.0782
     24 C         138.9782  143.5418  156.8167 C.ar    1  UNL1        0.0184
     25 C         138.9358  144.8025  156.0051 C.ar    1  UNL1        0.0190
     26 C         139.6700  146.0228  156.4762 C.ar    1  UNL1        0.0692
     27 C         140.4467  145.9823  157.7589 C.ar    1  UNL1        0.0485
     28 C         140.4891  144.7216  158.5705 C.ar    1  UNL1        0.1549
     29 F         141.2657  144.6810  159.8531 F       1  UNL1       -0.2028
     30 N         139.6277  147.2836  155.6646 N.ar    1  UNL1       -0.2731
     31 C         138.8132  148.4517  156.1358 C.ar    1  UNL1        0.0829
     32 C         138.7708  149.7126  155.3243 C.ar    1  UNL1        0.0192
     33 C         139.5428  149.8052  154.0416 C.ar    1  UNL1        0.0064
     34 C         140.3573  148.6370  153.5704 C.ar    1  UNL1        0.0611
     35 C         140.3997  147.3762  154.3819 C.ar    1  UNL1        0.2648
     36 O         141.2141  146.2080  153.9107 O.2     1  UNL1       -0.2666
     37 C         138.5613  139.1935  166.7657 C.3     1  UNL1        0.2573
     38 O         138.3752  139.6577  165.3516 O.3     1  UNL1       -0.4304
@<TRIPOS>BOND
     1    37    38    1
     2    38     1    1
     3     1     2    2
     4     1     3   am
     5     3     4    1
     6     4     5    1
     7     5     8    1
     8     8     9    2
     9     8    10   am
    10    10    12    1
    11    12    13   ar
    12    13    14   ar
    13    14    15   ar
    14    15    16    1
    15    15    17   ar
    16    17    18   ar
    17     5     6    1
    18     6    19    1
    19    19    20    2
    20    19    21   am
    21    21    23    1
    22    23    24   ar
    23    24    25   ar
    24    25    26   ar
    25    26    30    1
    26    30    31   ar
    27    31    32   ar
    28    32    33   ar
    29    33    34   ar
    30    34    35   ar
    31    35    36    2
    32    26    27   ar
    33    27    28   ar
    34    28    29    1
    35     6     7    1
    36     7     3    1
    37    18    12   ar
    38    28    23   ar
    39    35    30   ar
    40    10    11    1
    41    21    22    1
@<TRIPOS>MOLECULE
*****
 38 41 0 0 0
SMALL
GASTEIGER

@<TRIPOS>ATOM
      1 C         142.2524  145.0615  156.6731 C.2     1  UNL1        0.4050
      2 O         141.9331  146.1919  157.6060 O.2     1  UNL1       -0.2262
      3 N         142.4859  143.6833  157.2171 N.am    1  UNL1       -0.2450
      4 C         142.4339  143.2854  158.6625 C.3     1  UNL1        0.1063
      5 C         142.7283  141.8171  158.7498 C.3     1  UNL1        0.1070
      6 C         142.9622  141.3076  157.3586 C.3     1  UNL1        0.1069
      7 C         142.8124  142.4609  156.4113 C.3     1  UNL1        0.1063
      8 C         142.7797  141.0016  160.0078 C.2     1  UNL1        0.2289
      9 O         142.2051  139.6162  160.0275 O.2     1  UNL1       -0.2747
     10 N         143.4058  141.5715  161.2460 N.am    1  UNL1       -0.2693
     11 H         143.7829  142.4808  161.2331 H       1  UNL1        0.1563
     12 C         143.4572  140.7560  162.5040 C.ar    1  UNL1        0.1342
     13 C         144.7756  140.2716  163.0304 C.ar    1  UNL1        0.0354
     14 C         144.8270  139.4562  164.2883 C.ar    1  UNL1        0.0158
     15 C         143.5599  139.1251  165.0197 C.ar    1  UNL1        0.0769
     16 CL        143.6114  138.3096  166.2777 Cl      1  UNL1       -0.0806
     17 C         142.2416  139.6094  164.4933 C.ar    1  UNL1        0.1116
     18 N         142.1902  140.4249  163.2354 N.ar    1  UNL1       -0.2281
     19 C         143.2886  139.8931  156.9810 C.2     1  UNL1        0.2279
     20 O         144.7126  139.4927  156.7321 O.2     1  UNL1       -0.2747
     21 N         142.1909  138.8788  156.8523 N.am    1  UNL1       -0.2821
     22 H         141.2563  139.1416  157.0156 H       1  UNL1        0.1549
     23 C         142.5172  137.4643  156.4747 C.ar    1  UNL1        0.0782
     24 C         142.4739  137.0432  155.0357 C.ar    1  UNL1        0.0184
     25 C         142.8002  135.6287  154.6580 C.ar    1  UNL1        0.0190
     26 C         143.1698  134.6353  155.7194 C.ar    1  UNL1        0.0692
     27 C         143.2131  135.0564  157.1584 C.ar    1  UNL1        0.0485
     28 C         142.8868  136.4709  157.5361 C.ar    1  UNL1        0.1549
     29 F         142.9302  136.8921  158.9751 F       1  UNL1       -0.2028
     30 N         143.4961  133.2207  155.3418 N.ar    1  UNL1       -0.2731
     31 C         142.9240  132.6281  154.0882 C.ar    1  UNL1        0.0829
     32 C         143.2503  131.2135  153.7105 C.ar    1  UNL1        0.0192
     33 C         144.1486  130.3916  154.5865 C.ar    1  UNL1        0.0064
     34 C         144.7207  130.9842  155.8401 C.ar    1  UNL1        0.0611
     35 C         144.3945  132.3987  156.2178 C.ar    1  UNL1        0.2648
     36 O         144.9666  132.9913  157.4714 O.2     1  UNL1       -0.2666
     37 C         141.1136  145.1742  154.3406 C.3     1  UNL1        0.2573
     38 O         142.3382  145.3093  155.1962 O.3     1  UNL1       -0.4304
@<TRIPOS>BOND
     1    37    38    1
     2    38     1    1
     3     1     2    2
     4     1     3   am
     5     3     4    1
     6     4     5    1
     7     5     8    1
     8     8     9    2
     9     8    10   am
    10    10    12    1
    11    12    13   ar
    12    13    14   ar
    13    14    15   ar
    14    15    16    1
    15    15    17   ar
    16    17    18   ar
    17     5     6    1
    18     6    19    1
    19    19    20    2
    20    19    21   am
    21    21    23    1
    22    23    24   ar
    23    24    25   ar
    24    25    26   ar
    25    26    30    1
    26    30    31   ar
    27    31    32   ar
    28    32    33   ar
    29    33    34   ar
    30    34    35   ar
    31    35    36    2
    32    26    27   ar
    33    27    28   ar
    34    28    29    1
    35     6     7    1
    36     7     3    1
    37    18    12   ar
    38    28    23   ar
    39    35    30   ar
    40    10    11    1
    41    21    22    1
