@<TRIPOS>MOLECULE
*****
 20 21 0 0 0
SMALL
GASTEIGER

@<TRIPOS>ATOM
      1 N         142.2276  139.9035  167.0295 N.am    1  UNL1       -0.2763
      2 C         142.9213  138.7562  166.3569 C.2     1  UNL1        0.2495
      3 O         143.9530  137.9625  167.1023 O.2     1  UNL1       -0.2699
      4 C         142.5833  138.4025  164.9389 C.ar    1  UNL1        0.0592
      5 C         141.3696  137.5727  164.6418 C.ar    1  UNL1        0.0050
      6 C         141.0316  137.2190  163.2238 C.ar    1  UNL1        0.0002
      7 C         141.9074  137.6952  162.1030 C.ar    1  UNL1        0.0005
      8 C         143.1210  138.5250  162.4001 C.ar    1  UNL1        0.0063
      9 C         143.4590  138.8787  163.8180 C.ar    1  UNL1        0.0296
     10 S         144.6727  139.7086  164.1152 S.3     1  UNL1       -0.1126
     11 C         145.0328  140.8577  163.2209 C.3     1  UNL1        0.0742
     12 C         142.5656  140.2572  168.4475 C.3     1  UNL1        0.0927
     13 C         142.3586  139.3817  169.6478 C.3     1  UNL1        0.0383
     14 C         142.8350  140.1318  170.8563 C.3     1  UNL1        0.0704
     15 N         143.3364  141.4709  170.4028 N.3     1  UNL1       -0.2960
     16 C         143.1699  141.5483  168.9141 C.3     1  UNL1        0.0887
     17 H         144.3216  141.5724  170.6467 H       1  UNL1        0.1233
     18 C         141.1958  140.6972  166.2841 C.3     1  UNL1        0.0937
     19 C         139.0208  139.4564  166.9769 C.3     1  UNL1        0.0018
     20 C         139.7792  140.7349  166.7759 C.3     1  UNL1        0.0215
@<TRIPOS>BOND
     1    19    20    1
     2    20    18    1
     3    18     1    1
     4     1     2   am
     5     2     3    2
     6     2     4    1
     7     4     5   ar
     8     5     6   ar
     9     6     7   ar
    10     7     8   ar
    11     8     9   ar
    12     9    10    1
    13    10    11    1
    14    12     1    1
    15    12    13    1
    16    13    14    1
    17    14    15    1
    18    15    16    1
    19     9     4   ar
    20    16    12    1
    21    15    17    1
@<TRIPOS>MOLECULE
*****
 20 21 0 0 0
SMALL
GASTEIGER

@<TRIPOS>ATOM
      1 N         140.7859  143.3659  165.2317 N.am    1  UNL1       -0.2763
      2 C         141.5057  142.5045  166.2265 C.2     1  UNL1        0.2495
      3 O         142.9414  142.1348  165.9985 O.2     1  UNL1       -0.2699
      4 C         140.7897  142.0127  167.4495 C.ar    1  UNL1        0.0592
      5 C         140.7682  142.8502  168.6937 C.ar    1  UNL1        0.0050
      6 C         140.0522  142.3584  169.9165 C.ar    1  UNL1        0.0002
      7 C         139.3579  141.0290  169.8953 C.ar    1  UNL1        0.0005
      8 C         139.3794  140.1914  168.6511 C.ar    1  UNL1        0.0063
      9 C         140.0953  140.6832  167.4283 C.ar    1  UNL1        0.0296
     10 S         140.1169  139.8456  166.1840 S.3     1  UNL1       -0.1126
     11 C         138.9078  139.7871  165.2982 C.3     1  UNL1        0.0742
     12 C         141.5018  143.8578  164.0087 C.3     1  UNL1        0.0927
     13 C         141.5632  143.1595  162.6825 C.3     1  UNL1        0.0383
     14 C         142.3814  144.0044  161.7514 C.3     1  UNL1        0.0704
     15 N         142.8256  145.2247  162.5022 N.3     1  UNL1       -0.2960
     16 C         142.2820  145.1340  163.8973 C.3     1  UNL1        0.0887
     17 H         142.4665  146.0625  162.0445 H       1  UNL1        0.1233
     18 C         139.3501  143.7356  165.4597 C.3     1  UNL1        0.0937
     19 C         137.8039  144.1644  163.4164 C.3     1  UNL1        0.0018
     20 C         138.6641  144.6896  164.5273 C.3     1  UNL1        0.0215
@<TRIPOS>BOND
     1    19    20    1
     2    20    18    1
     3    18     1    1
     4     1     2   am
     5     2     3    2
     6     2     4    1
     7     4     5   ar
     8     5     6   ar
     9     6     7   ar
    10     7     8   ar
    11     8     9   ar
    12     9    10    1
    13    10    11    1
    14    12     1    1
    15    12    13    1
    16    13    14    1
    17    14    15    1
    18    15    16    1
    19     9     4   ar
    20    16    12    1
    21    15    17    1
@<TRIPOS>MOLECULE
*****
 20 21 0 0 0
SMALL
GASTEIGER

@<TRIPOS>ATOM
      1 N         139.7752  142.4666  163.1457 N.am    1  UNL1       -0.2763
      2 C         138.5822  141.5574  163.1499 C.2     1  UNL1        0.2495
      3 O         137.3457  141.9390  162.3912 O.2     1  UNL1       -0.2699
      4 C         138.6256  140.2665  163.9127 C.ar    1  UNL1        0.0592
      5 C         138.1140  140.2103  165.3216 C.ar    1  UNL1        0.0050
      6 C         138.1574  138.9195  166.0843 C.ar    1  UNL1        0.0002
      7 C         138.7124  137.6848  165.4381 C.ar    1  UNL1        0.0005
      8 C         139.2240  137.7410  164.0292 C.ar    1  UNL1        0.0063
      9 C         139.1806  139.0318  163.2665 C.ar    1  UNL1        0.0296
     10 S         139.6922  139.0881  161.8575 S.3     1  UNL1       -0.1126
     11 C         138.9697  138.3534  160.7674 C.3     1  UNL1        0.0742
     12 C         139.7318  143.7575  162.3829 C.3     1  UNL1        0.0927
     13 C         139.5827  145.1273  162.9758 C.3     1  UNL1        0.0383
     14 C         139.5886  146.1216  161.8527 C.3     1  UNL1        0.0704
     15 N         139.7413  145.3662  160.5657 N.3     1  UNL1       -0.2960
     16 C         139.8297  143.9052  160.8934 C.3     1  UNL1        0.0887
     17 H         140.5909  145.6657  160.0872 H       1  UNL1        0.1233
     18 C         141.0116  142.0850  163.9044 C.3     1  UNL1        0.0937
     19 C         140.1153  143.1808  166.0830 C.3     1  UNL1        0.0018
     20 C         141.2609  142.6568  165.2686 C.3     1  UNL1        0.0215
@<TRIPOS>BOND
     1    19    20    1
     2    20    18    1
     3    18     1    1
     4     1     2   am
     5     2     3    2
     6     2     4    1
     7     4     5   ar
     8     5     6   ar
     9     6     7   ar
    10     7     8   ar
    11     8     9   ar
    12     9    10    1
    13    10    11    1
    14    12     1    1
    15    12    13    1
    16    13    14    1
    17    14    15    1
    18    15    16    1
    19     9     4   ar
    20    16    12    1
    21    15    17    1
@<TRIPOS>MOLECULE
*****
 20 21 0 0 0
SMALL
GASTEIGER

@<TRIPOS>ATOM
      1 N         142.1609  142.6561  165.3382 N.am    1  UNL1       -0.2763
      2 C         140.7786  142.8443  165.8894 C.2     1  UNL1        0.2495
      3 O         139.8149  143.7639  165.1997 O.2     1  UNL1       -0.2699
      4 C         140.3600  142.1130  167.1304 C.ar    1  UNL1        0.0592
      5 C         140.6275  142.7111  168.4796 C.ar    1  UNL1        0.0050
      6 C         140.2089  141.9797  169.7205 C.ar    1  UNL1        0.0002
      7 C         139.5228  140.6502  169.6121 C.ar    1  UNL1        0.0005
      8 C         139.2554  140.0521  168.2628 C.ar    1  UNL1        0.0063
      9 C         139.6740  140.7834  167.0219 C.ar    1  UNL1        0.0296
     10 S         139.4065  140.1853  165.6726 S.3     1  UNL1       -0.1126
     11 C         138.5613  138.9519  165.5531 C.3     1  UNL1        0.0742
     12 C         142.5795  143.3875  164.0972 C.3     1  UNL1        0.0927
     13 C         142.4277  142.8933  162.6891 C.3     1  UNL1        0.0383
     14 C         142.9777  143.9418  161.7680 C.3     1  UNL1        0.0704
     15 N         143.4694  145.0840  162.6070 N.3     1  UNL1       -0.2960
     16 C         143.2233  144.7414  164.0465 C.3     1  UNL1        0.0887
     17 H         142.9641  145.9356  162.3626 H       1  UNL1        0.1233
     18 C         143.1246  141.7366  166.0278 C.3     1  UNL1        0.0937
     19 C         143.0070  139.2045  166.5977 C.3     1  UNL1        0.0018
     20 C         143.2296  140.3026  165.6004 C.3     1  UNL1        0.0215
@<TRIPOS>BOND
     1    19    20    1
     2    20    18    1
     3    18     1    1
     4     1     2   am
     5     2     3    2
     6     2     4    1
     7     4     5   ar
     8     5     6   ar
     9     6     7   ar
    10     7     8   ar
    11     8     9   ar
    12     9    10    1
    13    10    11    1
    14    12     1    1
    15    12    13    1
    16    13    14    1
    17    14    15    1
    18    15    16    1
    19     9     4   ar
    20    16    12    1
    21    15    17    1
@<TRIPOS>MOLECULE
*****
 20 21 0 0 0
SMALL
GASTEIGER

@<TRIPOS>ATOM
      1 N         140.2658  140.4632  166.8717 N.am    1  UNL1       -0.2763
      2 C         141.4618  139.6127  166.5617 C.2     1  UNL1        0.2495
      3 O         142.5024  139.3696  167.6143 O.2     1  UNL1       -0.2699
      4 C         141.6172  139.0051  165.1990 C.ar    1  UNL1        0.0592
      5 C         141.0156  137.6633  164.9030 C.ar    1  UNL1        0.0050
      6 C         141.1710  137.0558  163.5404 C.ar    1  UNL1        0.0002
      7 C         141.9280  137.7901  162.4738 C.ar    1  UNL1        0.0005
      8 C         142.5296  139.1319  162.7697 C.ar    1  UNL1        0.0063
      9 C         142.3742  139.7394  164.1323 C.ar    1  UNL1        0.0296
     10 S         142.9758  141.0813  164.4284 S.3     1  UNL1       -0.1126
     11 C         142.2491  142.3326  164.0334 C.3     1  UNL1        0.0742
     12 C         140.1104  141.0708  168.2343 C.3     1  UNL1        0.0927
     13 C         140.6169  142.4161  168.6627 C.3     1  UNL1        0.0383
     14 C         140.2408  142.6165  170.1010 C.3     1  UNL1        0.0704
     15 N         139.5018  141.3949  170.5614 N.3     1  UNL1       -0.2960
     16 C         139.4212  140.4397  169.4077 C.3     1  UNL1        0.0887
     17 H         138.5623  141.6523  170.8640 H       1  UNL1        0.1233
     18 C         139.2251  140.7062  165.8190 C.3     1  UNL1        0.0937
     19 C         137.8899  138.6356  166.6435 C.3     1  UNL1        0.0018
     20 C         138.0921  139.7384  165.6470 C.3     1  UNL1        0.0215
@<TRIPOS>BOND
     1    19    20    1
     2    20    18    1
     3    18     1    1
     4     1     2   am
     5     2     3    2
     6     2     4    1
     7     4     5   ar
     8     5     6   ar
     9     6     7   ar
    10     7     8   ar
    11     8     9   ar
    12     9    10    1
    13    10    11    1
    14    12     1    1
    15    12    13    1
    16    13    14    1
    17    14    15    1
    18    15    16    1
    19     9     4   ar
    20    16    12    1
    21    15    17    1
@<TRIPOS>MOLECULE
*****
 20 21 0 0 0
SMALL
GASTEIGER

@<TRIPOS>ATOM
      1 N         140.5436  140.0223  167.3827 N.am    1  UNL1       -0.2763
      2 C         139.2392  139.4345  166.9324 C.2     1  UNL1        0.2495
      3 O         138.1399  139.1992  167.9255 O.2     1  UNL1       -0.2699
      4 C         139.0339  139.0819  165.4889 C.ar    1  UNL1        0.0592
      5 C         139.2634  137.6756  165.0203 C.ar    1  UNL1        0.0050
      6 C         139.0581  137.3231  163.5769 C.ar    1  UNL1        0.0002
      7 C         138.6234  138.3769  162.6020 C.ar    1  UNL1        0.0005
      8 C         138.3939  139.7832  163.0705 C.ar    1  UNL1        0.0063
      9 C         138.5991  140.1357  164.5139 C.ar    1  UNL1        0.0296
     10 S         138.3696  141.5421  164.9825 S.3     1  UNL1       -0.1126
     11 C         137.7206  142.5401  164.0701 C.3     1  UNL1        0.0742
     12 C         140.7489  140.3748  168.8262 C.3     1  UNL1        0.0927
     13 C         140.2308  141.6018  169.5163 C.3     1  UNL1        0.0383
     14 C         140.6700  141.5476  170.9496 C.3     1  UNL1        0.0704
     15 N         141.4594  140.2872  171.1452 N.3     1  UNL1       -0.2960
     16 C         141.5082  139.5624  169.8329 C.3     1  UNL1        0.0887
     17 H         141.0079  139.7014  171.8476 H       1  UNL1        0.1233
     18 C         141.6429  140.2576  166.3895 C.3     1  UNL1        0.0937
     19 C         142.8967  138.4705  164.9809 C.3     1  UNL1        0.0018
     20 C         142.7531  139.2587  166.2490 C.3     1  UNL1        0.0215
@<TRIPOS>BOND
     1    19    20    1
     2    20    18    1
     3    18     1    1
     4     1     2   am
     5     2     3    2
     6     2     4    1
     7     4     5   ar
     8     5     6   ar
     9     6     7   ar
    10     7     8   ar
    11     8     9   ar
    12     9    10    1
    13    10    11    1
    14    12     1    1
    15    12    13    1
    16    13    14    1
    17    14    15    1
    18    15    16    1
    19     9     4   ar
    20    16    12    1
    21    15    17    1
@<TRIPOS>MOLECULE
*****
 20 21 0 0 0
SMALL
GASTEIGER

@<TRIPOS>ATOM
      1 N         141.2145  142.2085  167.3375 N.am    1  UNL1       -0.2763
      2 C         142.7072  142.0729  167.2800 C.2     1  UNL1        0.2495
      3 O         143.5057  142.0279  168.5490 O.2     1  UNL1       -0.2699
      4 C         143.4016  141.9822  165.9534 C.ar    1  UNL1        0.0592
      5 C         143.9050  143.2265  165.2838 C.ar    1  UNL1        0.0050
      6 C         144.5993  143.1358  163.9573 C.ar    1  UNL1        0.0002
      7 C         144.7902  141.8008  163.3004 C.ar    1  UNL1        0.0005
      8 C         144.2869  140.5566  163.9700 C.ar    1  UNL1        0.0063
      9 C         143.5926  140.6473  165.2965 C.ar    1  UNL1        0.0296
     10 S         143.0892  139.4030  165.9662 S.3     1  UNL1       -0.1126
     11 C         141.8796  138.6983  165.4275 C.3     1  UNL1        0.0742
     12 C         140.5202  142.2991  168.6641 C.3     1  UNL1        0.0927
     13 C         140.4475  143.5148  169.5398 C.3     1  UNL1        0.0383
     14 C         139.6590  143.1571  170.7648 C.3     1  UNL1        0.0704
     15 N         139.2445  141.7203  170.6460 N.3     1  UNL1       -0.2960
     16 C         139.7767  141.1901  169.3477 C.3     1  UNL1        0.0887
     17 H         138.2268  141.6516  170.6568 H       1  UNL1        0.1233
     18 C         140.4161  142.2534  166.0684 C.3     1  UNL1        0.0937
     19 C         140.3760  144.2772  164.4397 C.3     1  UNL1        0.0018
     20 C         139.8005  143.5440  165.6150 C.3     1  UNL1        0.0215
@<TRIPOS>BOND
     1    19    20    1
     2    20    18    1
     3    18     1    1
     4     1     2   am
     5     2     3    2
     6     2     4    1
     7     4     5   ar
     8     5     6   ar
     9     6     7   ar
    10     7     8   ar
    11     8     9   ar
    12     9    10    1
    13    10    11    1
    14    12     1    1
    15    12    13    1
    16    13    14    1
    17    14    15    1
    18    15    16    1
    19     9     4   ar
    20    16    12    1
    21    15    17    1
@<TRIPOS>MOLECULE
*****
 20 21 0 0 0
SMALL
GASTEIGER

@<TRIPOS>ATOM
      1 N         139.7900  141.2702  164.2227 N.am    1  UNL1       -0.2763
      2 C         141.1867  141.5759  164.6763 C.2     1  UNL1        0.2495
      3 O         141.7598  142.9464  164.4681 O.2     1  UNL1       -0.2699
      4 C         142.0104  140.5111  165.3380 C.ar    1  UNL1        0.0592
      5 C         141.9107  140.2980  166.8194 C.ar    1  UNL1        0.0050
      6 C         142.7344  139.2333  167.4810 C.ar    1  UNL1        0.0002
      7 C         143.6578  138.3816  166.6613 C.ar    1  UNL1        0.0005
      8 C         143.7575  138.5947  165.1799 C.ar    1  UNL1        0.0063
      9 C         142.9338  139.6594  164.5182 C.ar    1  UNL1        0.0296
     10 S         143.0335  139.8725  163.0367 S.3     1  UNL1       -0.1126
     11 C         144.2862  140.4469  162.4443 C.3     1  UNL1        0.0742
     12 C         138.9663  142.3350  163.5610 C.3     1  UNL1        0.0927
     13 C         138.3253  143.5060  164.2449 C.3     1  UNL1        0.0383
     14 C         137.6018  144.3105  163.2058 C.3     1  UNL1        0.0704
     15 N         137.7959  143.6365  161.8798 N.3     1  UNL1       -0.2960
     16 C         138.6392  142.4156  162.0994 C.3     1  UNL1        0.0887
     17 H         138.2667  144.2710  161.2347 H       1  UNL1        0.1233
     18 C         139.2170  139.8997  164.4309 C.3     1  UNL1        0.0937
     19 C         138.4720  139.1333  166.7990 C.3     1  UNL1        0.0018
     20 C         138.1336  139.6860  165.4463 C.3     1  UNL1        0.0215
@<TRIPOS>BOND
     1    19    20    1
     2    20    18    1
     3    18     1    1
     4     1     2   am
     5     2     3    2
     6     2     4    1
     7     4     5   ar
     8     5     6   ar
     9     6     7   ar
    10     7     8   ar
    11     8     9   ar
    12     9    10    1
    13    10    11    1
    14    12     1    1
    15    12    13    1
    16    13    14    1
    17    14    15    1
    18    15    16    1
    19     9     4   ar
    20    16    12    1
    21    15    17    1
@<TRIPOS>MOLECULE
*****
 20 21 0 0 0
SMALL
GASTEIGER

@<TRIPOS>ATOM
      1 N         139.7639  142.6331  163.1417 N.am    1  UNL1       -0.2763
      2 C         140.5348  141.5249  163.7955 C.2     1  UNL1        0.2495
      3 O         141.9883  141.3337  163.4784 O.2     1  UNL1       -0.2699
      4 C         139.8521  140.6077  164.7666 C.ar    1  UNL1        0.0592
      5 C         139.8171  140.9523  166.2260 C.ar    1  UNL1        0.0050
      6 C         139.1344  140.0352  167.1970 C.ar    1  UNL1        0.0002
      7 C         138.4868  138.7735  166.7085 C.ar    1  UNL1        0.0005
      8 C         138.5218  138.4289  165.2491 C.ar    1  UNL1        0.0063
      9 C         139.2044  139.3460  164.2781 C.ar    1  UNL1        0.0296
     10 S         139.2394  139.0014  162.8186 S.3     1  UNL1       -0.1126
     11 C         138.0652  138.3203  162.1804 C.3     1  UNL1        0.0742
     12 C         140.4466  143.5502  162.1707 C.3     1  UNL1        0.0927
     13 C         140.3012  143.5200  160.6780 C.3     1  UNL1        0.0383
     14 C         141.1592  144.6097  160.1066 C.3     1  UNL1        0.0704
     15 N         141.8348  145.3133  161.2461 N.3     1  UNL1       -0.2960
     16 C         141.3944  144.6585  162.5218 C.3     1  UNL1        0.0887
     17 H         141.5678  146.2977  161.2522 H       1  UNL1        0.1233
     18 C         138.3103  142.8242  163.4589 C.3     1  UNL1        0.0937
     19 C         138.9346  144.5758  165.2734 C.3     1  UNL1        0.0018
     20 C         137.8944  143.8234  164.4976 C.3     1  UNL1        0.0215
@<TRIPOS>BOND
     1    19    20    1
     2    20    18    1
     3    18     1    1
     4     1     2   am
     5     2     3    2
     6     2     4    1
     7     4     5   ar
     8     5     6   ar
     9     6     7   ar
    10     7     8   ar
    11     8     9   ar
    12     9    10    1
    13    10    11    1
    14    12     1    1
    15    12    13    1
    16    13    14    1
    17    14    15    1
    18    15    16    1
    19     9     4   ar
    20    16    12    1
    21    15    17    1
