@<TRIPOS>MOLECULE
*****
 19 20 0 0 0
SMALL
GASTEIGER

@<TRIPOS>ATOM
      1 C         141.1763  144.4563  163.7513 C.2     1  UNL1        0.0032
      2 C         141.6970  143.1311  164.2232 C.2     1  UNL1        0.0046
      3 C         141.7400  142.8215  165.6903 C.ar    1  UNL1        0.0549
      4 C         140.4782  142.8536  166.5008 C.ar    1  UNL1        0.1422
      5 F         139.1736  143.1953  165.8443 F       1  UNL1       -0.2041
      6 C         140.5212  142.5440  167.9679 C.ar    1  UNL1        0.0298
      7 C         141.8259  142.2023  168.6244 C.ar    1  UNL1        0.0046
      8 C         143.0876  142.1702  167.8139 C.ar    1  UNL1        0.0298
      9 C         143.0447  142.4798  166.3468 C.ar    1  UNL1        0.1422
     10 F         144.3064  142.4478  165.5362 F       1  UNL1       -0.2041
     11 C         141.0474  145.3851  159.3501 C.ar    1  UNL1        0.2203
     12 N         142.1666  144.5580  159.9096 N.ar    1  UNL1       -0.2121
     13 C         142.2096  144.2484  161.3767 C.ar    1  UNL1        0.1033
     14 C         141.1333  144.7659  162.2842 C.ar    1  UNL1        0.0384
     15 C         140.0140  145.5930  161.7247 C.ar    1  UNL1        0.1033
     16 N         139.9710  145.9026  160.2576 N.ar    1  UNL1       -0.2121
     17 C         142.1584  145.3165  157.0026 C.3     1  UNL1        0.1151
     18 N         141.0044  145.6947  157.8830 N.pl3   1  UNL1       -0.2747
     19 C         139.8075  146.3826  157.2964 C.3     1  UNL1        0.1151
@<TRIPOS>BOND
     1    17    18    1
     2    18    19    1
     3    18    11    1
     4    11    12   ar
     5    12    13   ar
     6    13    14   ar
     7    14     1    1
     8     1     2    2
     9     2     3    1
    10     3     4   ar
    11     4     5    1
    12     4     6   ar
    13     6     7   ar
    14     7     8   ar
    15     8     9   ar
    16     9    10    1
    17    14    15   ar
    18    15    16   ar
    19    16    11   ar
    20     9     3   ar
@<TRIPOS>MOLECULE
*****
 19 20 0 0 0
SMALL
GASTEIGER

@<TRIPOS>ATOM
      1 C         141.1009  144.2478  164.0156 C.2     1  UNL1        0.0032
      2 C         141.7186  142.9552  164.4600 C.2     1  UNL1        0.0046
      3 C         141.7329  142.5921  165.9153 C.ar    1  UNL1        0.0549
      4 C         143.0272  142.5837  166.6736 C.ar    1  UNL1        0.1422
      5 F         144.3071  142.9385  165.9765 F       1  UNL1       -0.2041
      6 C         143.0415  142.2206  168.1289 C.ar    1  UNL1        0.0298
      7 C         141.7615  141.8657  168.8260 C.ar    1  UNL1        0.0046
      8 C         140.4673  141.8741  168.0677 C.ar    1  UNL1        0.0298
      9 C         140.4530  142.2372  166.6124 C.ar    1  UNL1        0.1422
     10 F         139.1589  142.2456  165.8542 F       1  UNL1       -0.2041
     11 C         141.0580  145.3373  159.6497 C.ar    1  UNL1        0.2203
     12 N         142.2394  144.6195  160.2320 N.ar    1  UNL1       -0.2121
     13 C         142.2537  144.2563  161.6873 C.ar    1  UNL1        0.1033
     14 C         141.0866  144.6109  162.5603 C.ar    1  UNL1        0.0384
     15 C         139.9052  145.3287  161.9780 C.ar    1  UNL1        0.1033
     16 N         139.8909  145.6919  160.5227 N.ar    1  UNL1       -0.2121
     17 C         139.8331  146.3534  157.5962 C.3     1  UNL1        0.1151
     18 N         141.0437  145.7004  158.1944 N.pl3   1  UNL1       -0.2747
     19 C         142.2401  145.4106  157.3373 C.3     1  UNL1        0.1151
@<TRIPOS>BOND
     1    17    18    1
     2    18    19    1
     3    18    11    1
     4    11    12   ar
     5    12    13   ar
     6    13    14   ar
     7    14     1    1
     8     1     2    2
     9     2     3    1
    10     3     4   ar
    11     4     5    1
    12     4     6   ar
    13     6     7   ar
    14     7     8   ar
    15     8     9   ar
    16     9    10    1
    17    14    15   ar
    18    15    16   ar
    19    16    11   ar
    20     9     3   ar
@<TRIPOS>MOLECULE
*****
 19 20 0 0 0
SMALL
GASTEIGER

@<TRIPOS>ATOM
      1 C         140.2437  142.9698  166.3974 C.2     1  UNL1        0.0032
      2 C         140.7735  141.6479  166.8683 C.2     1  UNL1        0.0046
      3 C         140.8621  141.3554  168.3368 C.ar    1  UNL1        0.0549
      4 C         139.8491  140.4592  168.9855 C.ar    1  UNL1        0.1422
      5 F         138.7476  139.8555  168.1656 F       1  UNL1       -0.2041
      6 C         139.9376  140.1667  170.4540 C.ar    1  UNL1        0.0298
      7 C         141.0391  140.7705  171.2739 C.ar    1  UNL1        0.0046
      8 C         142.0520  141.6667  170.6253 C.ar    1  UNL1        0.0298
      9 C         141.9635  141.9591  169.1567 C.ar    1  UNL1        0.1422
     10 F         142.9764  142.8553  168.5081 F       1  UNL1       -0.2041
     11 C         139.9781  143.8472  161.9918 C.ar    1  UNL1        0.2203
     12 N         139.4118  144.8178  162.9853 N.ar    1  UNL1       -0.2121
     13 C         139.5003  144.5253  164.4538 C.ar    1  UNL1        0.1033
     14 C         140.1552  143.2623  164.9289 C.ar    1  UNL1        0.0384
     15 C         140.7215  142.2916  163.9354 C.ar    1  UNL1        0.1033
     16 N         140.6330  142.5841  162.4668 N.ar    1  UNL1       -0.2121
     17 C         140.3827  145.4515  159.9887 C.3     1  UNL1        0.1151
     18 N         139.8896  144.1396  160.5232 N.pl3   1  UNL1       -0.2747
     19 C         139.3080  143.1202  159.5892 C.3     1  UNL1        0.1151
@<TRIPOS>BOND
     1    17    18    1
     2    18    19    1
     3    18    11    1
     4    11    12   ar
     5    12    13   ar
     6    13    14   ar
     7    14     1    1
     8     1     2    2
     9     2     3    1
    10     3     4   ar
    11     4     5    1
    12     4     6   ar
    13     6     7   ar
    14     7     8   ar
    15     8     9   ar
    16     9    10    1
    17    14    15   ar
    18    15    16   ar
    19    16    11   ar
    20     9     3   ar
@<TRIPOS>MOLECULE
*****
 19 20 0 0 0
SMALL
GASTEIGER

@<TRIPOS>ATOM
      1 C         141.7587  142.4770  166.0485 C.2     1  UNL1        0.0032
      2 C         140.5170  142.2803  166.8667 C.2     1  UNL1        0.0046
      3 C         140.6202  141.7873  168.2797 C.ar    1  UNL1        0.0549
      4 C         140.9234  140.3433  168.5500 C.ar    1  UNL1        0.1422
      5 F         141.1234  139.3923  167.4074 F       1  UNL1       -0.2041
      6 C         141.0266  139.8504  169.9629 C.ar    1  UNL1        0.0298
      7 C         140.8266  140.8015  171.1055 C.ar    1  UNL1        0.0046
      8 C         140.5234  142.2454  170.8352 C.ar    1  UNL1        0.0298
      9 C         140.4203  142.7383  169.4223 C.ar    1  UNL1        0.1422
     10 F         140.1171  144.1823  169.1519 F       1  UNL1       -0.2041
     11 C         141.4491  143.9557  161.8097 C.ar    1  UNL1        0.2203
     12 N         142.1567  142.6664  162.1044 N.ar    1  UNL1       -0.2121
     13 C         142.2598  142.1735  163.5173 C.ar    1  UNL1        0.1033
     14 C         141.6555  142.9699  164.6355 C.ar    1  UNL1        0.0384
     15 C         140.9479  144.2592  164.3408 C.ar    1  UNL1        0.1033
     16 N         140.8447  144.7522  162.9279 N.ar    1  UNL1       -0.2121
     17 C         142.2387  143.8767  159.3358 C.3     1  UNL1        0.1151
     18 N         141.3459  144.4487  160.3967 N.pl3   1  UNL1       -0.2747
     19 C         140.3499  145.5136  160.0448 C.3     1  UNL1        0.1151
@<TRIPOS>BOND
     1    17    18    1
     2    18    19    1
     3    18    11    1
     4    11    12   ar
     5    12    13   ar
     6    13    14   ar
     7    14     1    1
     8     1     2    2
     9     2     3    1
    10     3     4   ar
    11     4     5    1
    12     4     6   ar
    13     6     7   ar
    14     7     8   ar
    15     8     9   ar
    16     9    10    1
    17    14    15   ar
    18    15    16   ar
    19    16    11   ar
    20     9     3   ar
@<TRIPOS>MOLECULE
*****
 19 20 0 0 0
SMALL
GASTEIGER

@<TRIPOS>ATOM
      1 C         141.7294  142.4235  166.0237 C.2     1  UNL1        0.0032
      2 C         140.4979  142.3218  166.8739 C.2     1  UNL1        0.0046
      3 C         140.5982  141.8135  168.2816 C.ar    1  UNL1        0.0549
      4 C         140.4151  142.7560  169.4341 C.ar    1  UNL1        0.1422
      5 F         140.1318  144.2067  169.1790 F       1  UNL1       -0.2041
      6 C         140.5154  142.2477  170.8418 C.ar    1  UNL1        0.0298
      7 C         140.7987  140.7969  171.0969 C.ar    1  UNL1        0.0046
      8 C         140.9818  139.8545  169.9444 C.ar    1  UNL1        0.0298
      9 C         140.8815  140.3628  168.5367 C.ar    1  UNL1        0.1422
     10 F         141.0645  139.4204  167.3842 F       1  UNL1       -0.2041
     11 C         141.4286  143.9484  161.8006 C.ar    1  UNL1        0.2203
     12 N         142.3855  144.5879  162.7626 N.ar    1  UNL1       -0.2121
     13 C         142.4858  144.0796  164.1702 C.ar    1  UNL1        0.1033
     14 C         141.6291  142.9318  164.6160 C.ar    1  UNL1        0.0384
     15 C         140.6722  142.2923  163.6541 C.ar    1  UNL1        0.1033
     16 N         140.5719  142.8006  162.2464 N.ar    1  UNL1       -0.2121
     17 C         142.2185  143.8914  159.3262 C.3     1  UNL1        0.1151
     18 N         141.3283  144.4567  160.3930 N.pl3   1  UNL1       -0.2747
     19 C         140.3378  145.5303  160.0520 C.3     1  UNL1        0.1151
@<TRIPOS>BOND
     1    17    18    1
     2    18    19    1
     3    18    11    1
     4    11    12   ar
     5    12    13   ar
     6    13    14   ar
     7    14     1    1
     8     1     2    2
     9     2     3    1
    10     3     4   ar
    11     4     5    1
    12     4     6   ar
    13     6     7   ar
    14     7     8   ar
    15     8     9   ar
    16     9    10    1
    17    14    15   ar
    18    15    16   ar
    19    16    11   ar
    20     9     3   ar
@<TRIPOS>MOLECULE
*****
 19 20 0 0 0
SMALL
GASTEIGER

@<TRIPOS>ATOM
      1 C         140.5099  142.8815  166.1990 C.2     1  UNL1        0.0032
      2 C         141.2423  141.6462  166.6320 C.2     1  UNL1        0.0046
      3 C         141.3976  141.3393  168.0921 C.ar    1  UNL1        0.0549
      4 C         142.6113  141.8160  168.8337 C.ar    1  UNL1        0.1422
      5 F         143.6695  142.5995  168.1152 F       1  UNL1       -0.2041
      6 C         142.7666  141.5091  170.2937 C.ar    1  UNL1        0.0298
      7 C         141.7082  140.7256  171.0121 C.ar    1  UNL1        0.0046
      8 C         140.4947  140.2489  170.2705 C.ar    1  UNL1        0.0298
      9 C         140.3394  140.5558  168.8105 C.ar    1  UNL1        0.1422
     10 F         139.1258  140.0792  168.0689 F       1  UNL1       -0.2041
     11 C         140.0440  143.8021  161.8189 C.ar    1  UNL1        0.2203
     12 N         140.8435  142.6098  162.2538 N.ar    1  UNL1       -0.2121
     13 C         140.9988  142.3030  163.7138 C.ar    1  UNL1        0.1033
     14 C         140.3546  143.1884  164.7390 C.ar    1  UNL1        0.0384
     15 C         139.5550  144.3806  164.3041 C.ar    1  UNL1        0.1033
     16 N         139.3997  144.6875  162.8441 N.ar    1  UNL1       -0.2121
     17 C         139.2662  143.0981  159.4421 C.3     1  UNL1        0.1151
     18 N         139.8887  144.1090  160.3589 N.pl3   1  UNL1       -0.2747
     19 C         140.3558  145.4268  159.8156 C.3     1  UNL1        0.1151
@<TRIPOS>BOND
     1    17    18    1
     2    18    19    1
     3    18    11    1
     4    11    12   ar
     5    12    13   ar
     6    13    14   ar
     7    14     1    1
     8     1     2    2
     9     2     3    1
    10     3     4   ar
    11     4     5    1
    12     4     6   ar
    13     6     7   ar
    14     7     8   ar
    15     8     9   ar
    16     9    10    1
    17    14    15   ar
    18    15    16   ar
    19    16    11   ar
    20     9     3   ar
@<TRIPOS>MOLECULE
*****
 19 20 0 0 0
SMALL
GASTEIGER

@<TRIPOS>ATOM
      1 C         141.1202  139.0612  165.8475 C.2     1  UNL1        0.0032
      2 C         140.8970  140.4241  166.4329 C.2     1  UNL1        0.0046
      3 C         140.8331  140.5999  167.9212 C.ar    1  UNL1        0.0549
      4 C         141.9655  141.2635  168.6474 C.ar    1  UNL1        0.1422
      5 F         143.1618  141.7513  167.8853 F       1  UNL1       -0.2041
      6 C         141.9015  141.4393  170.1357 C.ar    1  UNL1        0.0298
      7 C         140.7051  140.9514  170.8977 C.ar    1  UNL1        0.0046
      8 C         139.5728  140.2878  170.1715 C.ar    1  UNL1        0.0298
      9 C         139.6367  140.1121  168.6832 C.ar    1  UNL1        0.1422
     10 F         138.5044  139.4485  167.9570 F       1  UNL1       -0.2041
     11 C         141.3121  138.5339  161.3827 C.ar    1  UNL1        0.2203
     12 N         141.0921  137.3444  162.2696 N.ar    1  UNL1       -0.2121
     13 C         141.0281  137.5202  163.7579 C.ar    1  UNL1        0.1033
     14 C         141.1842  138.8854  164.3592 C.ar    1  UNL1        0.0384
     15 C         141.4042  140.0749  163.4723 C.ar    1  UNL1        0.1033
     16 N         141.4682  139.8991  161.9840 N.ar    1  UNL1       -0.2121
     17 C         140.1619  138.6241  159.0548 C.3     1  UNL1        0.1151
     18 N         141.3761  138.3581  159.8944 N.pl3   1  UNL1       -0.2747
     19 C         142.6543  137.9164  159.2456 C.3     1  UNL1        0.1151
@<TRIPOS>BOND
     1    17    18    1
     2    18    19    1
     3    18    11    1
     4    11    12   ar
     5    12    13   ar
     6    13    14   ar
     7    14     1    1
     8     1     2    2
     9     2     3    1
    10     3     4   ar
    11     4     5    1
    12     4     6   ar
    13     6     7   ar
    14     7     8   ar
    15     8     9   ar
    16     9    10    1
    17    14    15   ar
    18    15    16   ar
    19    16    11   ar
    20     9     3   ar
@<TRIPOS>MOLECULE
*****
 19 20 0 0 0
SMALL
GASTEIGER

@<TRIPOS>ATOM
      1 C         138.7823  141.9798  164.7276 C.2     1  UNL1        0.0032
      2 C         139.6931  141.0240  165.4394 C.2     1  UNL1        0.0046
      3 C         139.7727  141.0382  166.9372 C.ar    1  UNL1        0.0549
      4 C         140.4985  142.1475  167.6392 C.ar    1  UNL1        0.1422
      5 F         141.1448  143.2424  166.8434 F       1  UNL1       -0.2041
      6 C         140.5781  142.1617  169.1370 C.ar    1  UNL1        0.0298
      7 C         139.9317  141.0667  169.9329 C.ar    1  UNL1        0.0046
      8 C         139.2059  139.9575  169.2309 C.ar    1  UNL1        0.0298
      9 C         139.1264  139.9433  167.7330 C.ar    1  UNL1        0.1422
     10 F         138.4006  138.8341  167.0310 F       1  UNL1       -0.2041
     11 C         138.5437  141.9371  160.2341 C.ar    1  UNL1        0.2203
     12 N         137.8135  142.9900  161.0140 N.ar    1  UNL1       -0.2121
     13 C         137.8931  143.0043  162.5118 C.ar    1  UNL1        0.1033
     14 C         138.7028  141.9656  163.2298 C.ar    1  UNL1        0.0384
     15 C         139.4329  140.9127  162.4499 C.ar    1  UNL1        0.1033
     16 N         139.3534  140.8985  160.9521 N.ar    1  UNL1       -0.2121
     17 C         139.0442  143.0565  157.9436 C.3     1  UNL1        0.1151
     18 N         138.4642  141.9229  158.7363 N.pl3   1  UNL1       -0.2747
     19 C         137.8045  140.7750  158.0312 C.3     1  UNL1        0.1151
@<TRIPOS>BOND
     1    17    18    1
     2    18    19    1
     3    18    11    1
     4    11    12   ar
     5    12    13   ar
     6    13    14   ar
     7    14     1    1
     8     1     2    2
     9     2     3    1
    10     3     4   ar
    11     4     5    1
    12     4     6   ar
    13     6     7   ar
    14     7     8   ar
    15     8     9   ar
    16     9    10    1
    17    14    15   ar
    18    15    16   ar
    19    16    11   ar
    20     9     3   ar
@<TRIPOS>MOLECULE
*****
 19 20 0 0 0
SMALL
GASTEIGER

@<TRIPOS>ATOM
      1 C         138.6900  141.8101  164.3203 C.2     1  UNL1        0.0032
      2 C         139.6790  140.9724  165.0752 C.2     1  UNL1        0.0046
      3 C         139.7681  141.0803  166.5687 C.ar    1  UNL1        0.0549
      4 C         139.2241  139.9822  167.4338 C.ar    1  UNL1        0.1422
      5 F         138.5910  138.7763  166.8054 F       1  UNL1       -0.2041
      6 C         139.3131  140.0902  168.9272 C.ar    1  UNL1        0.0298
      7 C         139.9462  141.2963  169.5556 C.ar    1  UNL1        0.0046
      8 C         140.4901  142.3943  168.6905 C.ar    1  UNL1        0.0298
      9 C         140.4011  142.2863  167.1970 C.ar    1  UNL1        0.1422
     10 F         140.9451  143.3843  166.3319 F       1  UNL1       -0.2041
     11 C         138.4229  141.4862  159.8399 C.ar    1  UNL1        0.2203
     12 N         138.1612  142.8004  160.5138 N.ar    1  UNL1       -0.2121
     13 C         138.2502  142.9084  162.0073 C.ar    1  UNL1        0.1033
     14 C         138.6010  141.7021  162.8269 C.ar    1  UNL1        0.0384
     15 C         138.8627  140.3879  162.1530 C.ar    1  UNL1        0.1033
     16 N         138.7736  140.2799  160.6595 N.ar    1  UNL1       -0.2121
     17 C         137.7636  142.5108  157.5453 C.3     1  UNL1        0.1151
     18 N         138.3338  141.3782  158.3465 N.pl3   1  UNL1       -0.2747
     19 C         138.8150  140.1376  157.6542 C.3     1  UNL1        0.1151
@<TRIPOS>BOND
     1    17    18    1
     2    18    19    1
     3    18    11    1
     4    11    12   ar
     5    12    13   ar
     6    13    14   ar
     7    14     1    1
     8     1     2    2
     9     2     3    1
    10     3     4   ar
    11     4     5    1
    12     4     6   ar
    13     6     7   ar
    14     7     8   ar
    15     8     9   ar
    16     9    10    1
    17    14    15   ar
    18    15    16   ar
    19    16    11   ar
    20     9     3   ar
