@<TRIPOS>MOLECULE
*****
 29 32 0 0 0
SMALL
GASTEIGER

@<TRIPOS>ATOM
      1 C         142.3192  139.9885  166.9905 C.ar    1  UNL1        0.0858
      2 C         141.4420  141.1560  167.3332 C.ar    1  UNL1        0.0399
      3 C         141.1423  141.4732  168.7684 C.ar    1  UNL1        0.1032
      4 N         140.2651  142.6406  169.1111 N.ar    1  UNL1       -0.2405
      5 C         139.9655  142.9578  170.5462 C.ar    1  UNL1        0.1195
      6 C         140.5430  142.1074  171.6386 C.ar    1  UNL1        0.1196
      7 N         141.4203  140.9400  171.2959 N.ar    1  UNL1       -0.2379
      8 C         141.7199  140.6229  169.8608 C.ar    1  UNL1        0.1302
      9 C         142.5971  139.4553  169.5180 C.ar    1  UNL1        0.1478
     10 N         142.8968  139.1382  168.0829 N.ar    1  UNL1       -0.2292
     11 C         143.2182  139.0371  162.6851 C.ar    1  UNL1        0.1318
     12 C         142.2987  138.1516  163.4727 C.ar    1  UNL1        0.0344
     13 C         141.9990  138.4687  164.9078 C.ar    1  UNL1        0.0059
     14 C         142.6189  139.6713  165.5553 C.ar    1  UNL1        0.0370
     15 C         143.5384  140.5569  164.7678 C.ar    1  UNL1        0.1018
     16 N         143.8381  140.2397  163.3327 N.ar    1  UNL1       -0.2291
     17 C         144.0749  139.7810  160.3478 C.3     1  UNL1        0.1136
     18 N         143.5179  138.7199  161.2499 N.pl3   1  UNL1       -0.2897
     19 C         143.2606  137.3416  160.7170 C.3     1  UNL1        0.1136
     20 N         143.1747  138.6050  170.6104 N.pl3   1  UNL1       -0.3148
     21 H         143.2669  138.9687  171.5207 H       1  UNL1        0.1483
     22 C         143.6118  137.2007  170.3160 C.3     1  UNL1        0.1195
     23 C         144.5476  136.4947  171.2519 C.3     1  UNL1        0.1504
     24 C         144.0481  135.3623  172.0993 C.3     1  UNL1        0.1003
     25 N         144.9839  134.6563  173.0351 N.3     1  UNL1       -0.2933
     26 C         146.4193  135.0827  173.1235 C.3     1  UNL1        0.1011
     27 C         146.9189  136.2151  172.2761 C.3     1  UNL1        0.1592
     28 O         145.9831  136.9211  171.3402 O.3     1  UNL1       -0.3516
     29 H         144.9850  133.6730  172.7642 H       1  UNL1        0.1234
@<TRIPOS>BOND
     1    17    18    1
     2    18    19    1
     3    18    11    1
     4    11    12   ar
     5    12    13   ar
     6    13    14   ar
     7    14     1    1
     8     1     2   ar
     9     2     3   ar
    10     3     4   ar
    11     4     5   ar
    12     5     6   ar
    13     6     7   ar
    14     7     8   ar
    15     8     9   ar
    16     9    20    1
    17    20    22    1
    18    23    22    1
    19    23    24    1
    20    24    25    1
    21    25    26    1
    22    26    27    1
    23    27    28    1
    24     9    10   ar
    25    14    15   ar
    26    15    16   ar
    27    16    11   ar
    28    10     1   ar
    29     8     3   ar
    30    28    23    1
    31    20    21    1
    32    25    29    1
@<TRIPOS>MOLECULE
*****
 29 32 0 0 0
SMALL
GASTEIGER

@<TRIPOS>ATOM
      1 C         139.4173  141.5691  164.1610 C.ar    1  UNL1        0.0858
      2 C         139.2676  140.5561  163.0649 C.ar    1  UNL1        0.0399
      3 C         138.8901  140.9978  161.6819 C.ar    1  UNL1        0.1032
      4 N         138.7404  139.9849  160.5858 N.ar    1  UNL1       -0.2405
      5 C         138.3630  140.4265  159.2029 C.ar    1  UNL1        0.1195
      6 C         138.1353  141.8812  158.9161 C.ar    1  UNL1        0.1196
      7 N         138.2850  142.8941  160.0122 N.ar    1  UNL1       -0.2379
      8 C         138.6625  142.4524  161.3951 C.ar    1  UNL1        0.1302
      9 C         138.8122  143.4654  162.4913 C.ar    1  UNL1        0.1478
     10 N         139.1896  143.0237  163.8742 N.ar    1  UNL1       -0.2292
     11 C         140.5497  140.2442  168.3097 C.ar    1  UNL1        0.1318
     12 C         139.3331  139.6711  167.6453 C.ar    1  UNL1        0.0344
     13 C         138.9556  140.1127  166.2624 C.ar    1  UNL1        0.0059
     14 C         139.7948  141.1274  165.5440 C.ar    1  UNL1        0.0370
     15 C         141.0114  141.7005  166.2084 C.ar    1  UNL1        0.1018
     16 N         141.3888  141.2588  167.5913 N.ar    1  UNL1       -0.2291
     17 C         142.2558  139.1500  169.9352 C.3     1  UNL1        0.1136
     18 N         140.9271  139.8025  169.6927 N.pl3   1  UNL1       -0.2897
     19 C         139.9758  140.0133  170.8332 C.3     1  UNL1        0.1136
     20 N         138.5845  144.9200  162.2045 N.pl3   1  UNL1       -0.3148
     21 H         137.6672  145.2729  162.1481 H       1  UNL1        0.1483
     22 C         139.7545  145.8369  162.0038 C.3     1  UNL1        0.1195
     23 C         141.1481  145.3393  162.2490 C.3     1  UNL1        0.1504
     24 C         141.8703  144.5741  161.1800 C.3     1  UNL1        0.1003
     25 N         143.2639  144.0765  161.4253 N.3     1  UNL1       -0.2933
     26 C         143.9354  144.3442  162.7396 C.3     1  UNL1        0.1011
     27 C         143.2133  145.1095  163.8087 C.3     1  UNL1        0.1592
     28 O         141.8196  145.6070  163.5634 O.3     1  UNL1       -0.3516
     29 H         143.8550  144.4886  160.7034 H       1  UNL1        0.1234
@<TRIPOS>BOND
     1    17    18    1
     2    18    19    1
     3    18    11    1
     4    11    12   ar
     5    12    13   ar
     6    13    14   ar
     7    14     1    1
     8     1     2   ar
     9     2     3   ar
    10     3     4   ar
    11     4     5   ar
    12     5     6   ar
    13     6     7   ar
    14     7     8   ar
    15     8     9   ar
    16     9    20    1
    17    20    22    1
    18    23    22    1
    19    23    24    1
    20    24    25    1
    21    25    26    1
    22    26    27    1
    23    27    28    1
    24     9    10   ar
    25    14    15   ar
    26    15    16   ar
    27    16    11   ar
    28    10     1   ar
    29     8     3   ar
    30    28    23    1
    31    20    21    1
    32    25    29    1
@<TRIPOS>MOLECULE
*****
 29 32 0 0 0
SMALL
GASTEIGER

@<TRIPOS>ATOM
      1 C         141.1553  139.4462  165.0932 C.ar    1  UNL1        0.0858
      2 C         142.4777  139.4183  164.3857 C.ar    1  UNL1        0.0399
      3 C         142.5887  138.7905  163.0278 C.ar    1  UNL1        0.1032
      4 N         143.9111  138.7626  162.3203 N.ar    1  UNL1       -0.2405
      5 C         144.0220  138.1348  160.9626 C.ar    1  UNL1        0.1195
      6 C         142.8107  137.5350  160.3123 C.ar    1  UNL1        0.1196
      7 N         141.4884  137.5629  161.0198 N.ar    1  UNL1       -0.2379
      8 C         141.3774  138.1907  162.3776 C.ar    1  UNL1        0.1302
      9 C         140.0550  138.2186  163.0851 C.ar    1  UNL1        0.1478
     10 N         139.9440  138.8464  164.4429 N.ar    1  UNL1       -0.2292
     11 C         140.8223  141.3295  169.1665 C.ar    1  UNL1        0.1318
     12 C         139.6778  140.5339  168.6122 C.ar    1  UNL1        0.0344
     13 C         139.7888  139.9061  167.2545 C.ar    1  UNL1        0.0059
     14 C         141.0443  140.0740  166.4510 C.ar    1  UNL1        0.0370
     15 C         142.1887  140.8697  167.0052 C.ar    1  UNL1        0.1018
     16 N         142.0777  141.4974  168.3630 N.ar    1  UNL1       -0.2291
     17 C         141.6620  141.5600  171.6143 C.3     1  UNL1        0.1136
     18 N         140.7112  141.9573  170.5243 N.pl3   1  UNL1       -0.2897
     19 C         139.6494  142.9824  170.7921 C.3     1  UNL1        0.1136
     20 N         138.8436  137.6188  162.4349 N.pl3   1  UNL1       -0.3148
     21 H         138.6341  136.6662  162.5684 H       1  UNL1        0.1483
     22 C         137.9516  138.4704  161.5811 C.3     1  UNL1        0.1195
     23 C         137.9313  139.9584  161.7688 C.3     1  UNL1        0.1504
     24 C         138.3917  140.8603  160.6622 C.3     1  UNL1        0.1003
     25 N         138.3715  142.3484  160.8500 N.3     1  UNL1       -0.2933
     26 C         137.8907  142.9346  162.1443 C.3     1  UNL1        0.1011
     27 C         137.4302  142.0327  163.2509 C.3     1  UNL1        0.1592
     28 O         137.4505  140.5446  163.0632 O.3     1  UNL1       -0.3516
     29 H         137.7761  142.7298  160.1148 H       1  UNL1        0.1234
@<TRIPOS>BOND
     1    17    18    1
     2    18    19    1
     3    18    11    1
     4    11    12   ar
     5    12    13   ar
     6    13    14   ar
     7    14     1    1
     8     1     2   ar
     9     2     3   ar
    10     3     4   ar
    11     4     5   ar
    12     5     6   ar
    13     6     7   ar
    14     7     8   ar
    15     8     9   ar
    16     9    20    1
    17    20    22    1
    18    23    22    1
    19    23    24    1
    20    24    25    1
    21    25    26    1
    22    26    27    1
    23    27    28    1
    24     9    10   ar
    25    14    15   ar
    26    15    16   ar
    27    16    11   ar
    28    10     1   ar
    29     8     3   ar
    30    28    23    1
    31    20    21    1
    32    25    29    1
@<TRIPOS>MOLECULE
*****
 29 32 0 0 0
SMALL
GASTEIGER

@<TRIPOS>ATOM
      1 C         140.7692  142.9409  164.0772 C.ar    1  UNL1        0.0858
      2 C         141.5445  143.7891  163.1133 C.ar    1  UNL1        0.0399
      3 C         141.0431  143.9821  161.7127 C.ar    1  UNL1        0.1032
      4 N         141.8185  144.8303  160.7488 N.ar    1  UNL1       -0.2405
      5 C         141.3171  145.0233  159.3483 C.ar    1  UNL1        0.1195
      6 C         140.0404  144.3680  158.9118 C.ar    1  UNL1        0.1196
      7 N         139.2650  143.5198  159.8758 N.ar    1  UNL1       -0.2379
      8 C         139.7664  143.3268  161.2762 C.ar    1  UNL1        0.1302
      9 C         138.9910  142.4786  162.2403 C.ar    1  UNL1        0.1478
     10 N         139.4924  142.2856  163.6407 N.ar    1  UNL1       -0.2292
     11 C         142.2733  142.3618  168.2787 C.ar    1  UNL1        0.1318
     12 C         140.8249  142.6672  168.0360 C.ar    1  UNL1        0.0344
     13 C         140.3235  142.8602  166.6356 C.ar    1  UNL1        0.0059
     14 C         141.2705  142.7478  165.4778 C.ar    1  UNL1        0.0370
     15 C         142.7189  142.4424  165.7204 C.ar    1  UNL1        0.1018
     16 N         143.2203  142.2494  167.1209 N.ar    1  UNL1       -0.2291
     17 C         144.1885  142.5302  170.0262 C.3     1  UNL1        0.1136
     18 N         142.7747  142.1688  169.6792 N.pl3   1  UNL1       -0.2897
     19 C         141.8622  141.6144  170.7327 C.3     1  UNL1        0.1136
     20 N         137.7142  141.8234  161.8038 N.pl3   1  UNL1       -0.3148
     21 H         136.8646  142.3182  161.8544 H       1  UNL1        0.1483
     22 C         137.7319  140.4142  161.2902 C.3     1  UNL1        0.1195
     23 C         138.6039  139.3867  161.9488 C.3     1  UNL1        0.1504
     24 C         139.7138  138.7383  161.1759 C.3     1  UNL1        0.1003
     25 N         140.5859  137.7108  161.8345 N.3     1  UNL1       -0.2933
     26 C         140.3479  137.3317  163.2662 C.3     1  UNL1        0.1011
     27 C         139.2379  137.9801  164.0392 C.3     1  UNL1        0.1592
     28 O         138.3659  139.0076  163.3806 O.3     1  UNL1       -0.3516
     29 H         141.5436  138.0568  161.7768 H       1  UNL1        0.1234
@<TRIPOS>BOND
     1    17    18    1
     2    18    19    1
     3    18    11    1
     4    11    12   ar
     5    12    13   ar
     6    13    14   ar
     7    14     1    1
     8     1     2   ar
     9     2     3   ar
    10     3     4   ar
    11     4     5   ar
    12     5     6   ar
    13     6     7   ar
    14     7     8   ar
    15     8     9   ar
    16     9    20    1
    17    20    22    1
    18    23    22    1
    19    23    24    1
    20    24    25    1
    21    25    26    1
    22    26    27    1
    23    27    28    1
    24     9    10   ar
    25    14    15   ar
    26    15    16   ar
    27    16    11   ar
    28    10     1   ar
    29     8     3   ar
    30    28    23    1
    31    20    21    1
    32    25    29    1
@<TRIPOS>MOLECULE
*****
 29 32 0 0 0
SMALL
GASTEIGER

@<TRIPOS>ATOM
      1 C         139.5386  141.8265  164.5068 C.ar    1  UNL1        0.0858
      2 C         140.2138  142.9280  163.7448 C.ar    1  UNL1        0.0399
      3 C         139.9345  143.1088  162.2821 C.ar    1  UNL1        0.1032
      4 N         140.6097  144.2103  161.5201 N.ar    1  UNL1       -0.2405
      5 C         140.3303  144.3910  160.0575 C.ar    1  UNL1        0.1195
      6 C         139.3757  143.4703  159.3569 C.ar    1  UNL1        0.1196
      7 N         138.7004  142.3688  160.1189 N.ar    1  UNL1       -0.2379
      8 C         138.9798  142.1881  161.5815 C.ar    1  UNL1        0.1302
      9 C         138.3045  141.0865  162.3436 C.ar    1  UNL1        0.1478
     10 N         138.5839  140.9058  163.8062 N.ar    1  UNL1       -0.2292
     11 C         140.3766  141.2841  168.8946 C.ar    1  UNL1        0.1318
     12 C         140.7251  142.5770  168.2187 C.ar    1  UNL1        0.0344
     13 C         140.4457  142.7579  166.7562 C.ar    1  UNL1        0.0059
     14 C         139.8179  141.6457  165.9694 C.ar    1  UNL1        0.0370
     15 C         139.4695  140.3528  166.6453 C.ar    1  UNL1        0.1018
     16 N         139.7488  140.1719  168.1079 N.ar    1  UNL1       -0.2291
     17 C         141.4621  142.1279  171.0991 C.3     1  UNL1        0.1136
     18 N         140.6560  141.1033  170.3573 N.pl3   1  UNL1       -0.2897
     19 C         140.1292  139.8979  171.0781 C.3     1  UNL1        0.1136
     20 N         137.3499  140.1658  161.6430 N.pl3   1  UNL1       -0.3148
     21 H         136.4542  140.4858  161.3889 H       1  UNL1        0.1483
     22 C         137.7598  138.7574  161.3295 C.3     1  UNL1        0.1195
     23 C         139.2122  138.3824  161.3250 C.3     1  UNL1        0.1504
     24 C         139.7967  137.6323  162.4851 C.3     1  UNL1        0.1003
     25 N         141.2490  137.2573  162.4806 N.3     1  UNL1       -0.2933
     26 C         142.1169  137.6323  161.3161 C.3     1  UNL1        0.1011
     27 C         141.5325  138.3824  160.1560 C.3     1  UNL1        0.1592
     28 O         140.0801  138.7575  160.1605 O.3     1  UNL1       -0.3516
     29 H         141.2911  136.2416  162.5641 H       1  UNL1        0.1234
@<TRIPOS>BOND
     1    17    18    1
     2    18    19    1
     3    18    11    1
     4    11    12   ar
     5    12    13   ar
     6    13    14   ar
     7    14     1    1
     8     1     2   ar
     9     2     3   ar
    10     3     4   ar
    11     4     5   ar
    12     5     6   ar
    13     6     7   ar
    14     7     8   ar
    15     8     9   ar
    16     9    20    1
    17    20    22    1
    18    23    22    1
    19    23    24    1
    20    24    25    1
    21    25    26    1
    22    26    27    1
    23    27    28    1
    24     9    10   ar
    25    14    15   ar
    26    15    16   ar
    27    16    11   ar
    28    10     1   ar
    29     8     3   ar
    30    28    23    1
    31    20    21    1
    32    25    29    1
@<TRIPOS>MOLECULE
*****
 29 32 0 0 0
SMALL
GASTEIGER

@<TRIPOS>ATOM
      1 C         142.6571  142.2062  164.3568 C.ar    1  UNL1        0.0858
      2 C         143.2969  141.4108  163.2578 C.ar    1  UNL1        0.0399
      3 C         143.3593  141.9686  161.8667 C.ar    1  UNL1        0.1032
      4 N         143.9991  141.1731  160.7677 N.ar    1  UNL1       -0.2405
      5 C         144.0615  141.7309  159.3767 C.ar    1  UNL1        0.1195
      6 C         143.4840  143.0842  159.0847 C.ar    1  UNL1        0.1196
      7 N         142.8442  143.8796  160.1837 N.ar    1  UNL1       -0.2379
      8 C         142.7819  143.3218  161.5747 C.ar    1  UNL1        0.1302
      9 C         142.1420  144.1173  162.6737 C.ar    1  UNL1        0.1478
     10 N         142.0797  143.5595  164.0647 N.ar    1  UNL1       -0.2292
     11 C         142.4699  140.5329  168.5298 C.ar    1  UNL1        0.1318
     12 C         143.0708  141.8863  168.2908 C.ar    1  UNL1        0.0344
     13 C         143.1332  142.4441  166.8998 C.ar    1  UNL1        0.0059
     14 C         142.5947  141.6485  165.7478 C.ar    1  UNL1        0.0370
     15 C         141.9939  140.2950  165.9869 C.ar    1  UNL1        0.1018
     16 N         141.9315  139.7372  167.3779 N.ar    1  UNL1       -0.2291
     17 C         142.7765  138.5431  170.1720 C.3     1  UNL1        0.1136
     18 N         142.4076  139.9751  169.9209 N.pl3   1  UNL1       -0.2897
     19 C         141.9762  140.8494  171.0609 C.3     1  UNL1        0.1136
     20 N         141.5646  145.4705  162.3817 N.pl3   1  UNL1       -0.3148
     21 H         142.1612  146.2430  162.2532 H       1  UNL1        0.1483
     22 C         140.0781  145.6468  162.2856 C.3     1  UNL1        0.1195
     23 C         139.1644  144.5034  162.6140 C.3     1  UNL1        0.1504
     24 C         138.7523  143.5404  161.5404 C.3     1  UNL1        0.1003
     25 N         137.8386  142.3970  161.8688 N.3     1  UNL1       -0.2933
     26 C         137.3371  142.2166  163.2709 C.3     1  UNL1        0.1011
     27 C         137.7492  143.1797  164.3446 C.3     1  UNL1        0.1592
     28 O         138.6629  144.3231  164.0162 O.3     1  UNL1       -0.3516
     29 H         138.3367  141.5418  161.6220 H       1  UNL1        0.1234
@<TRIPOS>BOND
     1    17    18    1
     2    18    19    1
     3    18    11    1
     4    11    12   ar
     5    12    13   ar
     6    13    14   ar
     7    14     1    1
     8     1     2   ar
     9     2     3   ar
    10     3     4   ar
    11     4     5   ar
    12     5     6   ar
    13     6     7   ar
    14     7     8   ar
    15     8     9   ar
    16     9    20    1
    17    20    22    1
    18    23    22    1
    19    23    24    1
    20    24    25    1
    21    25    26    1
    22    26    27    1
    23    27    28    1
    24     9    10   ar
    25    14    15   ar
    26    15    16   ar
    27    16    11   ar
    28    10     1   ar
    29     8     3   ar
    30    28    23    1
    31    20    21    1
    32    25    29    1
@<TRIPOS>MOLECULE
*****
 29 32 0 0 0
SMALL
GASTEIGER

@<TRIPOS>ATOM
      1 C         142.7223  141.8998  163.8466 C.ar    1  UNL1        0.0858
      2 C         142.4439  142.9688  162.8318 C.ar    1  UNL1        0.0399
      3 C         142.8426  142.7659  161.4000 C.ar    1  UNL1        0.1032
      4 N         142.5642  143.8348  160.3853 N.ar    1  UNL1       -0.2405
      5 C         142.9629  143.6319  158.9536 C.ar    1  UNL1        0.1195
      6 C         143.6399  142.3600  158.5366 C.ar    1  UNL1        0.1196
      7 N         143.9183  141.2910  159.5514 N.ar    1  UNL1       -0.2379
      8 C         143.5196  141.4940  160.9831 C.ar    1  UNL1        0.1302
      9 C         143.7980  140.4250  161.9979 C.ar    1  UNL1        0.1478
     10 N         143.3993  140.6279  163.4296 N.ar    1  UNL1       -0.2292
     11 C         141.5264  142.5085  168.1418 C.ar    1  UNL1        0.1318
     12 C         140.5006  142.6265  167.0538 C.ar    1  UNL1        0.0344
     13 C         140.8992  142.4236  165.6220 C.ar    1  UNL1        0.0059
     14 C         142.3236  142.1027  165.2784 C.ar    1  UNL1        0.0370
     15 C         143.3494  141.9848  166.3664 C.ar    1  UNL1        0.1018
     16 N         142.9508  142.1877  167.7982 N.ar    1  UNL1       -0.2291
     17 C         141.5072  141.6948  170.6091 C.3     1  UNL1        0.1136
     18 N         141.1277  142.7114  169.5736 N.pl3   1  UNL1       -0.2897
     19 C         140.3495  143.9310  169.9698 C.3     1  UNL1        0.1136
     20 N         144.4750  139.1530  161.5810 N.pl3   1  UNL1       -0.3148
     21 H         145.4467  139.1414  161.4234 H       1  UNL1        0.1483
     22 C         143.6715  137.8988  161.4041 C.3     1  UNL1        0.1195
     23 C         142.1728  137.9594  161.4224 C.3     1  UNL1        0.1504
     24 C         141.4223  137.5874  162.6667 C.3     1  UNL1        0.1003
     25 N         139.9237  137.6480  162.6849 N.3     1  UNL1       -0.2933
     26 C         139.1755  138.0805  161.4589 C.3     1  UNL1        0.1011
     27 C         139.9260  138.4524  160.2145 C.3     1  UNL1        0.1592
     28 O         141.4247  138.3919  160.1962 O.3     1  UNL1       -0.3516
     29 H         139.6641  138.2931  163.4311 H       1  UNL1        0.1234
@<TRIPOS>BOND
     1    17    18    1
     2    18    19    1
     3    18    11    1
     4    11    12   ar
     5    12    13   ar
     6    13    14   ar
     7    14     1    1
     8     1     2   ar
     9     2     3   ar
    10     3     4   ar
    11     4     5   ar
    12     5     6   ar
    13     6     7   ar
    14     7     8   ar
    15     8     9   ar
    16     9    20    1
    17    20    22    1
    18    23    22    1
    19    23    24    1
    20    24    25    1
    21    25    26    1
    22    26    27    1
    23    27    28    1
    24     9    10   ar
    25    14    15   ar
    26    15    16   ar
    27    16    11   ar
    28    10     1   ar
    29     8     3   ar
    30    28    23    1
    31    20    21    1
    32    25    29    1
@<TRIPOS>MOLECULE
*****
 29 32 0 0 0
SMALL
GASTEIGER

@<TRIPOS>ATOM
      1 C         142.4481  141.7857  164.7198 C.ar    1  UNL1        0.0858
      2 C         143.2504  142.3991  165.8289 C.ar    1  UNL1        0.0399
      3 C         142.9280  142.0727  167.2570 C.ar    1  UNL1        0.1032
      4 N         143.7303  142.6861  168.3661 N.ar    1  UNL1       -0.2405
      5 C         143.4079  142.3596  169.7942 C.ar    1  UNL1        0.1195
      6 C         142.2833  141.4197  170.1132 C.ar    1  UNL1        0.1196
      7 N         141.4811  140.8062  169.0042 N.ar    1  UNL1       -0.2379
      8 C         141.8034  141.1327  167.5761 C.ar    1  UNL1        0.1302
      9 C         141.0011  140.5193  166.4669 C.ar    1  UNL1        0.1478
     10 N         141.3235  140.8458  165.0389 N.ar    1  UNL1       -0.2292
     11 C         143.4150  142.7651  160.4355 C.ar    1  UNL1        0.1318
     12 C         144.5193  142.6296  161.4415 C.ar    1  UNL1        0.0344
     13 C         144.1971  142.3032  162.8696 C.ar    1  UNL1        0.0059
     14 C         142.7704  142.1122  163.2917 C.ar    1  UNL1        0.0370
     15 C         141.6661  142.2476  162.2857 C.ar    1  UNL1        0.1018
     16 N         141.9884  142.5741  160.8575 N.ar    1  UNL1       -0.2291
     17 C         144.9993  142.5712  158.3854 C.3     1  UNL1        0.1136
     18 N         143.7373  143.0915  159.0073 N.pl3   1  UNL1       -0.2897
     19 C         142.7977  143.9383  158.2011 C.3     1  UNL1        0.1136
     20 N         139.8765  139.5794  166.7860 N.pl3   1  UNL1       -0.3148
     21 H         139.9979  138.8803  167.4685 H       1  UNL1        0.1483
     22 C         138.5671  139.7045  166.0651 C.3     1  UNL1        0.1195
     23 C         138.4541  139.2692  164.6342 C.3     1  UNL1        0.1504
     24 C         138.8581  137.8799  164.2387 C.3     1  UNL1        0.1003
     25 N         138.7450  137.4445  162.8077 N.3     1  UNL1       -0.2933
     26 C         138.2280  138.3986  161.7722 C.3     1  UNL1        0.1011
     27 C         137.8240  139.7881  162.1676 C.3     1  UNL1        0.1592
     28 O         137.9370  140.2234  163.5986 O.3     1  UNL1       -0.3516
     29 H         138.1274  136.6329  162.7948 H       1  UNL1        0.1234
@<TRIPOS>BOND
     1    17    18    1
     2    18    19    1
     3    18    11    1
     4    11    12   ar
     5    12    13   ar
     6    13    14   ar
     7    14     1    1
     8     1     2   ar
     9     2     3   ar
    10     3     4   ar
    11     4     5   ar
    12     5     6   ar
    13     6     7   ar
    14     7     8   ar
    15     8     9   ar
    16     9    20    1
    17    20    22    1
    18    23    22    1
    19    23    24    1
    20    24    25    1
    21    25    26    1
    22    26    27    1
    23    27    28    1
    24     9    10   ar
    25    14    15   ar
    26    15    16   ar
    27    16    11   ar
    28    10     1   ar
    29     8     3   ar
    30    28    23    1
    31    20    21    1
    32    25    29    1
@<TRIPOS>MOLECULE
*****
 29 32 0 0 0
SMALL
GASTEIGER

@<TRIPOS>ATOM
      1 C         139.9514  143.4284  160.1681 C.ar    1  UNL1        0.0858
      2 C         141.4387  143.2532  160.2521 C.ar    1  UNL1        0.0399
      3 C         142.1955  143.8158  161.4187 C.ar    1  UNL1        0.1032
      4 N         143.6828  143.6405  161.5028 N.ar    1  UNL1       -0.2405
      5 C         144.4395  144.2031  162.6693 C.ar    1  UNL1        0.1195
      6 C         143.7089  144.9409  163.7518 C.ar    1  UNL1        0.1196
      7 N         142.2216  145.1162  163.6677 N.ar    1  UNL1       -0.2379
      8 C         141.4649  144.5536  162.5012 C.ar    1  UNL1        0.1302
      9 C         139.9775  144.7289  162.4171 C.ar    1  UNL1        0.1478
     10 N         139.2208  144.1663  161.2506 N.ar    1  UNL1       -0.2292
     11 C         137.6811  141.7406  156.6685 C.ar    1  UNL1        0.1318
     12 C         138.4584  143.0142  156.5144 C.ar    1  UNL1        0.0344
     13 C         139.2151  143.5768  157.6809 C.ar    1  UNL1        0.0059
     14 C         139.1946  142.8658  159.0015 C.ar    1  UNL1        0.0370
     15 C         138.4173  141.5922  159.1556 C.ar    1  UNL1        0.1018
     16 N         137.6605  141.0296  157.9891 N.ar    1  UNL1       -0.2291
     17 C         135.5312  140.6558  155.6931 C.3     1  UNL1        0.1136
     18 N         136.9243  141.1780  155.5020 N.pl3   1  UNL1       -0.2897
     19 C         137.5606  141.1377  154.1442 C.3     1  UNL1        0.1136
     20 N         139.2469  145.4668  163.4996 N.pl3   1  UNL1       -0.3148
     21 H         139.0555  146.4271  163.3979 H       1  UNL1        0.1483
     22 C         138.8078  144.7415  164.7369 C.3     1  UNL1        0.1195
     23 C         138.7195  143.2441  164.7370 C.3     1  UNL1        0.1504
     24 C         137.5515  142.5616  164.0891 C.3     1  UNL1        0.1003
     25 N         137.4632  141.0642  164.0892 N.3     1  UNL1       -0.2933
     26 C         138.5429  140.2493  164.7373 C.3     1  UNL1        0.1011
     27 C         139.7111  140.9317  165.3852 C.3     1  UNL1        0.1592
     28 O         139.7994  142.4291  165.3851 O.3     1  UNL1       -0.3516
     29 H         137.4193  140.7717  163.1130 H       1  UNL1        0.1234
@<TRIPOS>BOND
     1    17    18    1
     2    18    19    1
     3    18    11    1
     4    11    12   ar
     5    12    13   ar
     6    13    14   ar
     7    14     1    1
     8     1     2   ar
     9     2     3   ar
    10     3     4   ar
    11     4     5   ar
    12     5     6   ar
    13     6     7   ar
    14     7     8   ar
    15     8     9   ar
    16     9    20    1
    17    20    22    1
    18    23    22    1
    19    23    24    1
    20    24    25    1
    21    25    26    1
    22    26    27    1
    23    27    28    1
    24     9    10   ar
    25    14    15   ar
    26    15    16   ar
    27    16    11   ar
    28    10     1   ar
    29     8     3   ar
    30    28    23    1
    31    20    21    1
    32    25    29    1
