@<TRIPOS>MOLECULE
*****
 31 32 0 0 0
SMALL
GASTEIGER

@<TRIPOS>ATOM
      1 N         140.6026  137.9308  162.8857 N.3     1  UNL1       -0.2670
      2 C         141.4827  137.9444  161.6712 C.3     1  UNL1        0.1047
      3 C         142.9553  138.1913  161.8148 C.3     1  UNL1        0.1595
      4 O         143.5477  138.4245  163.1729 O.3     1  UNL1       -0.3516
      5 C         142.6676  138.4108  164.3875 C.3     1  UNL1        0.1507
      6 C         141.1950  138.1640  164.2439 C.3     1  UNL1        0.1039
      7 C         139.1300  137.6839  162.7421 C.3     1  UNL1        0.0938
      8 C         138.2504  138.7317  162.1270 C.3     1  UNL1        0.1082
      9 N         137.6951  142.1378  164.0868 N.am    1  UNL1       -0.2921
     10 C         138.3258  141.0862  163.2227 C.2     1  UNL1        0.3007
     11 O         139.6625  141.3377  162.5904 O.2     1  UNL1       -0.2528
     12 N         137.6197  139.7832  162.9911 N.am    1  UNL1       -0.2875
     13 H         136.8178  141.9727  164.5018 H       1  UNL1        0.1508
     14 H         136.7424  139.6182  163.4061 H       1  UNL1        0.1510
     15 C         139.1513  142.8304  165.4651 C.3     1  UNL1        0.0197
     16 C         138.4011  143.4407  164.3185 C.3     1  UNL1        0.0583
     17 C         137.6510  144.0511  163.1718 C.3     1  UNL1        0.0197
     18 C         139.1072  144.7438  164.5501 C.3     1  UNL1        0.0197
     19 C         143.2600  138.6441  165.7457 C.3     1  UNL1        0.1207
     20 N         142.3980  139.1535  166.8625 N.am    1  UNL1       -0.2985
     21 C         142.0032  140.6001  166.9053 C.2     1  UNL1        0.2460
     22 O         142.4705  141.5370  165.8311 O.2     1  UNL1       -0.2701
     23 H         142.0914  138.5385  167.5675 H       1  UNL1        0.1498
     24 C         141.1412  141.1095  168.0221 C.ar    1  UNL1        0.0550
     25 C         140.1184  140.2100  168.6503 C.ar    1  UNL1        0.0160
     26 C         139.2564  140.7195  169.7671 C.ar    1  UNL1        0.0587
     27 CL        138.2335  139.8199  170.3953 Cl      1  UNL1       -0.0822
     28 C         139.4172  142.1285  170.2558 C.ar    1  UNL1        0.0228
     29 C         140.4400  143.0281  169.6276 C.ar    1  UNL1        0.0587
     30 CL        140.6009  144.4371  170.1162 Cl      1  UNL1       -0.0822
     31 C         141.3021  142.5185  168.5107 C.ar    1  UNL1        0.0160
@<TRIPOS>BOND
     1    15    16    1
     2    16    17    1
     3    16    18    1
     4    16     9    1
     5     9    10   am
     6    10    11    2
     7    10    12   am
     8    12     8    1
     9     8     7    1
    10     7     1    1
    11     1     2    1
    12     2     3    1
    13     3     4    1
    14     4     5    1
    15     5    19    1
    16    19    20    1
    17    20    21   am
    18    21    22    2
    19    21    24    1
    20    24    25   ar
    21    25    26   ar
    22    26    27    1
    23    26    28   ar
    24    28    29   ar
    25    29    30    1
    26    29    31   ar
    27     5     6    1
    28     6     1    1
    29    31    24   ar
    30     9    13    1
    31    12    14    1
    32    20    23    1
@<TRIPOS>MOLECULE
*****
 31 32 0 0 0
SMALL
GASTEIGER

@<TRIPOS>ATOM
      1 N         144.2160  142.4468  162.5505 N.3     1  UNL1       -0.2670
      2 C         144.2324  141.8095  161.1927 C.3     1  UNL1        0.1047
      3 C         144.0818  140.3230  161.0601 C.3     1  UNL1        0.1595
      4 O         143.9148  139.4738  162.2852 O.3     1  UNL1       -0.3516
      5 C         143.8984  140.1111  163.6429 C.3     1  UNL1        0.1507
      6 C         144.0491  141.5976  163.7756 C.3     1  UNL1        0.1039
      7 C         144.3667  143.9333  162.6832 C.3     1  UNL1        0.0938
      8 C         143.7166  144.6539  163.8269 C.3     1  UNL1        0.1082
      9 N         139.7950  145.2623  163.7949 N.am    1  UNL1       -0.2921
     10 C         141.1241  144.5943  163.9876 C.2     1  UNL1        0.3007
     11 O         141.1901  143.1989  164.5337 O.2     1  UNL1       -0.2528
     12 N         142.3874  145.3219  163.6342 N.am    1  UNL1       -0.2875
     13 H         139.7517  146.1782  163.4365 H       1  UNL1        0.1508
     14 H         142.3442  146.2378  163.2758 H       1  UNL1        0.1510
     15 C         138.6352  145.0394  165.5571 C.3     1  UNL1        0.0197
     16 C         138.5318  144.5348  164.1483 C.3     1  UNL1        0.0583
     17 C         138.4283  144.0302  162.7396 C.3     1  UNL1        0.0197
     18 C         137.2684  143.8073  164.5017 C.3     1  UNL1        0.0197
     19 C         143.7314  139.2619  164.8681 C.3     1  UNL1        0.1207
     20 N         143.1793  139.8619  166.1270 N.am    1  UNL1       -0.2985
     21 C         141.6954  139.9726  166.3171 C.2     1  UNL1        0.2460
     22 O         140.7638  139.4831  165.2482 O.2     1  UNL1       -0.2701
     23 H         143.7907  140.1832  166.8286 H       1  UNL1        0.1498
     24 C         141.1432  140.5726  167.5760 C.ar    1  UNL1        0.0550
     25 C         139.9039  140.0011  168.1985 C.ar    1  UNL1        0.0160
     26 C         139.3517  140.6012  169.4574 C.ar    1  UNL1        0.0587
     27 CL        138.1124  140.0297  170.0799 Cl      1  UNL1       -0.0822
     28 C         140.0389  141.7729  170.0940 C.ar    1  UNL1        0.0228
     29 C         141.2782  142.3444  169.4715 C.ar    1  UNL1        0.0587
     30 CL        141.9653  143.5160  170.1080 Cl      1  UNL1       -0.0822
     31 C         141.8304  141.7442  168.2125 C.ar    1  UNL1        0.0160
@<TRIPOS>BOND
     1    15    16    1
     2    16    17    1
     3    16    18    1
     4    16     9    1
     5     9    10   am
     6    10    11    2
     7    10    12   am
     8    12     8    1
     9     8     7    1
    10     7     1    1
    11     1     2    1
    12     2     3    1
    13     3     4    1
    14     4     5    1
    15     5    19    1
    16    19    20    1
    17    20    21   am
    18    21    22    2
    19    21    24    1
    20    24    25   ar
    21    25    26   ar
    22    26    27    1
    23    26    28   ar
    24    28    29   ar
    25    29    30    1
    26    29    31   ar
    27     5     6    1
    28     6     1    1
    29    31    24   ar
    30     9    13    1
    31    12    14    1
    32    20    23    1
@<TRIPOS>MOLECULE
*****
 31 32 0 0 0
SMALL
GASTEIGER

@<TRIPOS>ATOM
      1 N         141.1201  138.0345  162.5823 N.3     1  UNL1       -0.2670
      2 C         141.8509  137.7609  161.3013 C.3     1  UNL1        0.1047
      3 C         143.3121  138.0808  161.1883 C.3     1  UNL1        0.1595
      4 O         144.0424  138.6743  162.3563 O.3     1  UNL1       -0.3516
      5 C         143.3116  138.9479  163.6373 C.3     1  UNL1        0.1507
      6 C         141.8505  138.6280  163.7503 C.3     1  UNL1        0.1039
      7 C         139.6590  137.7146  162.6952 C.3     1  UNL1        0.0938
      8 C         138.6348  138.7360  162.2983 C.3     1  UNL1        0.1082
      9 N         138.1255  141.9668  164.5462 N.am    1  UNL1       -0.2921
     10 C         138.6868  141.0290  163.5188 C.2     1  UNL1        0.3007
     11 O         139.8615  141.4464  162.6846 O.2     1  UNL1       -0.2528
     12 N         138.0734  139.6738  163.3257 N.am    1  UNL1       -0.2875
     13 H         137.3545  141.6929  165.0937 H       1  UNL1        0.1508
     14 H         137.3024  139.3999  163.8732 H       1  UNL1        0.1510
     15 C         137.7607  143.9039  163.7623 C.3     1  UNL1        0.0197
     16 C         138.7388  143.3220  164.7393 C.3     1  UNL1        0.0583
     17 C         139.7169  142.7400  165.7164 C.3     1  UNL1        0.0197
     18 C         139.3522  144.6772  164.9325 C.3     1  UNL1        0.0197
     19 C         144.0419  139.5414  164.8054 C.3     1  UNL1        0.1207
     20 N         143.2848  140.2918  165.8606 N.am    1  UNL1       -0.2985
     21 C         143.0340  139.6586  167.1972 C.2     1  UNL1        0.2460
     22 O         143.5405  138.2750  167.4784 O.2     1  UNL1       -0.2701
     23 H         142.9524  141.2000  165.6761 H       1  UNL1        0.1498
     24 C         142.2769  140.4090  168.2524 C.ar    1  UNL1        0.0550
     25 C         142.9339  141.5413  168.9848 C.ar    1  UNL1        0.0160
     26 C         142.1767  142.2916  170.0400 C.ar    1  UNL1        0.0587
     27 CL        142.8337  143.4239  170.7724 Cl      1  UNL1       -0.0822
     28 C         140.7625  141.9098  170.3629 C.ar    1  UNL1        0.0228
     29 C         140.1055  140.7776  169.6305 C.ar    1  UNL1        0.0587
     30 CL        138.6913  140.3957  169.9534 Cl      1  UNL1       -0.0822
     31 C         140.8627  140.0272  168.5753 C.ar    1  UNL1        0.0160
@<TRIPOS>BOND
     1    15    16    1
     2    16    17    1
     3    16    18    1
     4    16     9    1
     5     9    10   am
     6    10    11    2
     7    10    12   am
     8    12     8    1
     9     8     7    1
    10     7     1    1
    11     1     2    1
    12     2     3    1
    13     3     4    1
    14     4     5    1
    15     5    19    1
    16    19    20    1
    17    20    21   am
    18    21    22    2
    19    21    24    1
    20    24    25   ar
    21    25    26   ar
    22    26    27    1
    23    26    28   ar
    24    28    29   ar
    25    29    30    1
    26    29    31   ar
    27     5     6    1
    28     6     1    1
    29    31    24   ar
    30     9    13    1
    31    12    14    1
    32    20    23    1
@<TRIPOS>MOLECULE
*****
 31 32 0 0 0
SMALL
GASTEIGER

@<TRIPOS>ATOM
      1 N         137.9416  142.7728  162.8798 N.3     1  UNL1       -0.2670
      2 C         137.8859  142.1686  161.5081 C.3     1  UNL1        0.1047
      3 C         137.9824  140.6812  161.3392 C.3     1  UNL1        0.1595
      4 O         138.1346  139.7981  162.5420 O.3     1  UNL1       -0.3516
      5 C         138.1903  140.4024  163.9138 C.3     1  UNL1        0.1507
      6 C         138.0938  141.8897  164.0827 C.3     1  UNL1        0.1039
      7 C         137.8451  144.2601  163.0487 C.3     1  UNL1        0.0938
      8 C         138.9525  145.1442  162.5569 C.3     1  UNL1        0.1082
      9 N         142.5347  144.5642  164.1637 N.am    1  UNL1       -0.2921
     10 C         141.3080  144.3615  163.3246 C.2     1  UNL1        0.3007
     11 O         141.2101  143.1737  162.4139 O.2     1  UNL1       -0.2528
     12 N         140.1792  145.3469  163.3961 N.am    1  UNL1       -0.2875
     13 H         142.5990  145.3438  164.7614 H       1  UNL1        0.1508
     14 H         140.2435  146.1265  163.9938 H       1  UNL1        0.1510
     15 C         144.2098  144.2920  162.8910 C.3     1  UNL1        0.0197
     16 C         143.6635  143.5789  164.0922 C.3     1  UNL1        0.0583
     17 C         143.1172  142.8659  165.2935 C.3     1  UNL1        0.0197
     18 C         144.7923  142.5936  164.0208 C.3     1  UNL1        0.0197
     19 C         138.3426  139.5193  165.1167 C.3     1  UNL1        0.1207
     20 N         138.8721  140.0857  166.4007 N.am    1  UNL1       -0.2985
     21 C         140.3514  140.2322  166.6022 C.2     1  UNL1        0.2460
     22 O         141.3009  139.8124  165.5195 O.2     1  UNL1       -0.2701
     23 H         138.2489  140.3612  167.1113 H       1  UNL1        0.1498
     24 C         140.8809  140.7986  167.8862 C.ar    1  UNL1        0.0550
     25 C         140.4942  142.1844  168.3106 C.ar    1  UNL1        0.0160
     26 C         141.0238  142.7508  169.5946 C.ar    1  UNL1        0.0587
     27 CL        140.6370  144.1365  170.0190 Cl      1  UNL1       -0.0822
     28 C         141.9401  141.9314  170.4542 C.ar    1  UNL1        0.0228
     29 C         142.3269  140.5456  170.0298 C.ar    1  UNL1        0.0587
     30 CL        143.2432  139.7263  170.8894 Cl      1  UNL1       -0.0822
     31 C         141.7973  139.9793  168.7457 C.ar    1  UNL1        0.0160
@<TRIPOS>BOND
     1    15    16    1
     2    16    17    1
     3    16    18    1
     4    16     9    1
     5     9    10   am
     6    10    11    2
     7    10    12   am
     8    12     8    1
     9     8     7    1
    10     7     1    1
    11     1     2    1
    12     2     3    1
    13     3     4    1
    14     4     5    1
    15     5    19    1
    16    19    20    1
    17    20    21   am
    18    21    22    2
    19    21    24    1
    20    24    25   ar
    21    25    26   ar
    22    26    27    1
    23    26    28   ar
    24    28    29   ar
    25    29    30    1
    26    29    31   ar
    27     5     6    1
    28     6     1    1
    29    31    24   ar
    30     9    13    1
    31    12    14    1
    32    20    23    1
@<TRIPOS>MOLECULE
*****
 31 32 0 0 0
SMALL
GASTEIGER

@<TRIPOS>ATOM
      1 N         144.2900  141.1789  163.0197 N.3     1  UNL1       -0.2670
      2 C         144.5822  140.5843  161.6740 C.3     1  UNL1        0.1047
      3 C         144.0943  139.2054  161.3414 C.3     1  UNL1        0.1595
      4 O         143.3143  138.4211  162.3546 O.3     1  UNL1       -0.3516
      5 C         143.0222  139.0158  163.7003 C.3     1  UNL1        0.1507
      6 C         143.5100  140.3947  164.0328 C.3     1  UNL1        0.1039
      7 C         144.7778  142.5579  163.3522 C.3     1  UNL1        0.0938
      8 C         144.2001  143.7484  162.6461 C.3     1  UNL1        0.1082
      9 N         140.7363  145.0203  164.1072 N.am    1  UNL1       -0.2921
     10 C         141.7537  144.1602  163.4179 C.2     1  UNL1        0.3007
     11 O         141.3420  142.8517  162.8110 O.2     1  UNL1       -0.2528
     12 N         143.1828  144.6086  163.3354 N.am    1  UNL1       -0.2875
     13 H         141.0066  145.8791  164.5055 H       1  UNL1        0.1508
     14 H         143.4530  145.4674  163.7337 H       1  UNL1        0.1510
     15 C         139.0417  145.1703  162.8401 C.3     1  UNL1        0.0197
     16 C         139.3073  144.5720  164.1897 C.3     1  UNL1        0.0583
     17 C         139.5730  143.9736  165.5392 C.3     1  UNL1        0.0197
     18 C         137.8782  144.1236  164.2722 C.3     1  UNL1        0.0197
     19 C         142.2421  138.2315  164.7135 C.3     1  UNL1        0.1207
     20 N         141.9062  138.8453  166.0403 N.am    1  UNL1       -0.2985
     21 C         140.7600  139.8063  166.1534 C.2     1  UNL1        0.2460
     22 O         139.9498  140.1536  164.9397 O.2     1  UNL1       -0.2701
     23 H         142.4379  138.6174  166.8368 H       1  UNL1        0.1498
     24 C         140.4240  140.4201  167.4802 C.ar    1  UNL1        0.0550
     25 C         139.3035  139.8585  168.3042 C.ar    1  UNL1        0.0160
     26 C         138.9675  140.4722  169.6309 C.ar    1  UNL1        0.0587
     27 CL        137.8470  139.9106  170.4549 Cl      1  UNL1       -0.0822
     28 C         139.7521  141.6477  170.1338 C.ar    1  UNL1        0.0228
     29 C         140.8726  142.2094  169.3098 C.ar    1  UNL1        0.0587
     30 CL        141.6572  143.3848  169.8125 Cl      1  UNL1       -0.0822
     31 C         141.2086  141.5955  167.9829 C.ar    1  UNL1        0.0160
@<TRIPOS>BOND
     1    15    16    1
     2    16    17    1
     3    16    18    1
     4    16     9    1
     5     9    10   am
     6    10    11    2
     7    10    12   am
     8    12     8    1
     9     8     7    1
    10     7     1    1
    11     1     2    1
    12     2     3    1
    13     3     4    1
    14     4     5    1
    15     5    19    1
    16    19    20    1
    17    20    21   am
    18    21    22    2
    19    21    24    1
    20    24    25   ar
    21    25    26   ar
    22    26    27    1
    23    26    28   ar
    24    28    29   ar
    25    29    30    1
    26    29    31   ar
    27     5     6    1
    28     6     1    1
    29    31    24   ar
    30     9    13    1
    31    12    14    1
    32    20    23    1
@<TRIPOS>MOLECULE
*****
 31 32 0 0 0
SMALL
GASTEIGER

@<TRIPOS>ATOM
      1 N         139.3891  139.5159  159.7964 N.3     1  UNL1       -0.2670
      2 C         140.7523  139.0083  159.4304 C.3     1  UNL1        0.1047
      3 C         141.4985  138.1142  160.3758 C.3     1  UNL1        0.1595
      4 O         140.8815  137.7277  161.6872 O.3     1  UNL1       -0.3516
      5 C         139.5183  138.2352  162.0532 C.3     1  UNL1        0.1507
      6 C         138.7721  139.1293  161.1078 C.3     1  UNL1        0.1039
      7 C         138.6430  140.4100  158.8509 C.3     1  UNL1        0.0938
      8 C         138.8228  141.8973  158.9256 C.3     1  UNL1        0.1082
      9 N         137.8402  143.7809  162.2777 N.am    1  UNL1       -0.2921
     10 C         138.6217  142.9802  161.2787 C.2     1  UNL1        0.3007
     11 O         139.9836  142.4615  161.6338 O.2     1  UNL1       -0.2528
     12 N         138.0412  142.6980  159.9246 N.am    1  UNL1       -0.2875
     13 H         136.9463  144.1213  162.0446 H       1  UNL1        0.1508
     14 H         137.1473  143.0384  159.6915 H       1  UNL1        0.1510
     15 C         139.1264  145.2655  163.0786 C.3     1  UNL1        0.0197
     16 C         138.4205  144.0631  163.6317 C.3     1  UNL1        0.0583
     17 C         137.7147  142.8607  164.1848 C.3     1  UNL1        0.0197
     18 C         139.0009  144.3452  164.9859 C.3     1  UNL1        0.0197
     19 C         138.9012  137.8487  163.3646 C.3     1  UNL1        0.1207
     20 N         139.0604  138.7404  164.5602 N.am    1  UNL1       -0.2985
     21 C         140.3332  138.7113  165.3534 C.2     1  UNL1        0.2460
     22 O         141.4468  137.7904  164.9510 O.2     1  UNL1       -0.2701
     23 H         138.3295  139.3448  164.8243 H       1  UNL1        0.1498
     24 C         140.4925  139.6030  166.5490 C.ar    1  UNL1        0.0550
     25 C         141.6732  140.5229  166.6466 C.ar    1  UNL1        0.0160
     26 C         141.8325  141.4146  167.8422 C.ar    1  UNL1        0.0587
     27 CL        143.0132  142.3345  167.9398 Cl      1  UNL1       -0.0822
     28 C         140.8109  141.3865  168.9402 C.ar    1  UNL1        0.0228
     29 C         139.6301  140.4665  168.8426 C.ar    1  UNL1        0.0587
     30 CL        138.6086  140.4383  169.9406 Cl      1  UNL1       -0.0822
     31 C         139.4709  139.5748  167.6470 C.ar    1  UNL1        0.0160
@<TRIPOS>BOND
     1    15    16    1
     2    16    17    1
     3    16    18    1
     4    16     9    1
     5     9    10   am
     6    10    11    2
     7    10    12   am
     8    12     8    1
     9     8     7    1
    10     7     1    1
    11     1     2    1
    12     2     3    1
    13     3     4    1
    14     4     5    1
    15     5    19    1
    16    19    20    1
    17    20    21   am
    18    21    22    2
    19    21    24    1
    20    24    25   ar
    21    25    26   ar
    22    26    27    1
    23    26    28   ar
    24    28    29   ar
    25    29    30    1
    26    29    31   ar
    27     5     6    1
    28     6     1    1
    29    31    24   ar
    30     9    13    1
    31    12    14    1
    32    20    23    1
@<TRIPOS>MOLECULE
*****
 31 32 0 0 0
SMALL
GASTEIGER

@<TRIPOS>ATOM
      1 N         139.3708  143.9331  160.8850 N.3     1  UNL1       -0.2670
      2 C         139.3484  143.2527  159.5484 C.3     1  UNL1        0.1047
      3 C         138.6397  141.9406  159.3864 C.3     1  UNL1        0.1595
      4 O         137.9534  141.3089  160.5611 O.3     1  UNL1       -0.3516
      5 C         137.9758  141.9893  161.8977 C.3     1  UNL1        0.1507
      6 C         138.6844  143.3014  162.0596 C.3     1  UNL1        0.1039
      7 C         140.0794  145.2451  161.0469 C.3     1  UNL1        0.0938
      8 C         141.0101  145.4571  162.2040 C.3     1  UNL1        0.1082
      9 N         144.3237  143.3086  162.5969 N.am    1  UNL1       -0.2921
     10 C         142.8886  143.7325  162.7012 C.2     1  UNL1        0.3007
     11 O         141.8970  142.8558  163.4068 O.2     1  UNL1       -0.2528
     12 N         142.4451  145.0332  162.0998 N.am    1  UNL1       -0.2875
     13 H         144.9745  143.8841  162.1337 H       1  UNL1        0.1508
     14 H         143.0960  145.6087  161.6366 H       1  UNL1        0.1510
     15 C         144.5768  141.3306  161.8736 C.3     1  UNL1        0.0197
     16 C         144.7672  142.0080  163.1982 C.3     1  UNL1        0.0583
     17 C         144.9575  142.6854  164.5229 C.3     1  UNL1        0.0197
     18 C         145.2107  140.7074  163.7997 C.3     1  UNL1        0.0197
     19 C         137.2894  141.3576  163.0724 C.3     1  UNL1        0.1207
     20 N         138.0393  141.1452  164.3540 N.am    1  UNL1       -0.2985
     21 C         139.2736  140.2928  164.3684 C.2     1  UNL1        0.2460
     22 O         139.7579  139.6529  163.1012 O.2     1  UNL1       -0.2701
     23 H         137.7214  141.5652  165.1858 H       1  UNL1        0.1498
     24 C         140.0235  140.0804  165.6500 C.ar    1  UNL1        0.0550
     25 C         141.3886  139.4592  165.6261 C.ar    1  UNL1        0.0160
     26 C         142.1385  139.2468  166.9077 C.ar    1  UNL1        0.0587
     27 CL        143.5036  138.6257  166.8838 Cl      1  UNL1       -0.0822
     28 C         141.5232  139.6557  168.2133 C.ar    1  UNL1        0.0228
     29 C         140.1581  140.2769  168.2372 C.ar    1  UNL1        0.0587
     30 CL        139.5429  140.6857  169.5426 Cl      1  UNL1       -0.0822
     31 C         139.4082  140.4892  166.9555 C.ar    1  UNL1        0.0160
@<TRIPOS>BOND
     1    15    16    1
     2    16    17    1
     3    16    18    1
     4    16     9    1
     5     9    10   am
     6    10    11    2
     7    10    12   am
     8    12     8    1
     9     8     7    1
    10     7     1    1
    11     1     2    1
    12     2     3    1
    13     3     4    1
    14     4     5    1
    15     5    19    1
    16    19    20    1
    17    20    21   am
    18    21    22    2
    19    21    24    1
    20    24    25   ar
    21    25    26   ar
    22    26    27    1
    23    26    28   ar
    24    28    29   ar
    25    29    30    1
    26    29    31   ar
    27     5     6    1
    28     6     1    1
    29    31    24   ar
    30     9    13    1
    31    12    14    1
    32    20    23    1
@<TRIPOS>MOLECULE
*****
 31 32 0 0 0
SMALL
GASTEIGER

@<TRIPOS>ATOM
      1 N         142.2826  143.9203  160.1032 N.3     1  UNL1       -0.2670
      2 C         141.8432  144.6020  158.8414 C.3     1  UNL1        0.1047
      3 C         140.5999  145.4412  158.8362 C.3     1  UNL1        0.1595
      4 O         139.7961  145.5988  160.0927 O.3     1  UNL1       -0.3516
      5 C         140.2355  144.9171  161.3545 C.3     1  UNL1        0.1507
      6 C         141.4787  144.0778  161.3597 C.3     1  UNL1        0.1039
      7 C         143.5258  143.0811  160.1084 C.3     1  UNL1        0.0938
      8 C         144.2726  142.8548  161.3895 C.3     1  UNL1        0.1082
      9 N         143.8526  139.3776  163.2558 N.am    1  UNL1       -0.2921
     10 C         143.5794  140.7749  162.7837 C.2     1  UNL1        0.3007
     11 O         142.3398  141.4897  163.2337 O.2     1  UNL1       -0.2528
     12 N         144.5458  141.4575  161.8616 N.am    1  UNL1       -0.2875
     13 H         144.6662  138.9085  162.9605 H       1  UNL1        0.1508
     14 H         145.3594  140.9884  161.5663 H       1  UNL1        0.1510
     15 C         143.5653  139.3266  165.3569 C.3     1  UNL1        0.0197
     16 C         142.8863  138.6951  164.1779 C.3     1  UNL1        0.0583
     17 C         142.2073  138.0636  162.9989 C.3     1  UNL1        0.0197
     18 C         141.9199  138.0125  165.1000 C.3     1  UNL1        0.0197
     19 C         139.4316  145.0746  162.6111 C.3     1  UNL1        0.1207
     20 N         139.6676  144.1552  163.7726 N.am    1  UNL1       -0.2985
     21 C         138.9115  142.8635  163.8724 C.2     1  UNL1        0.2460
     22 O         137.9194  142.4913  162.8107 O.2     1  UNL1       -0.2701
     23 H         140.3188  144.3995  164.4694 H       1  UNL1        0.1498
     24 C         139.1475  141.9442  165.0339 C.ar    1  UNL1        0.0550
     25 C         138.4554  140.6145  165.0906 C.ar    1  UNL1        0.0160
     26 C         138.6914  139.6952  166.2521 C.ar    1  UNL1        0.0587
     27 CL        137.9994  138.3656  166.3089 Cl      1  UNL1       -0.0822
     28 C         139.6195  140.1054  167.3569 C.ar    1  UNL1        0.0228
     29 C         140.3115  141.4350  167.3001 C.ar    1  UNL1        0.0587
     30 CL        141.2396  141.8453  168.4048 Cl      1  UNL1       -0.0822
     31 C         140.0755  142.3544  166.1386 C.ar    1  UNL1        0.0160
@<TRIPOS>BOND
     1    15    16    1
     2    16    17    1
     3    16    18    1
     4    16     9    1
     5     9    10   am
     6    10    11    2
     7    10    12   am
     8    12     8    1
     9     8     7    1
    10     7     1    1
    11     1     2    1
    12     2     3    1
    13     3     4    1
    14     4     5    1
    15     5    19    1
    16    19    20    1
    17    20    21   am
    18    21    22    2
    19    21    24    1
    20    24    25   ar
    21    25    26   ar
    22    26    27    1
    23    26    28   ar
    24    28    29   ar
    25    29    30    1
    26    29    31   ar
    27     5     6    1
    28     6     1    1
    29    31    24   ar
    30     9    13    1
    31    12    14    1
    32    20    23    1
@<TRIPOS>MOLECULE
*****
 31 32 0 0 0
SMALL
GASTEIGER

@<TRIPOS>ATOM
      1 N         142.1703  143.9535  160.3173 N.3     1  UNL1       -0.2670
      2 C         141.7967  144.7122  159.0784 C.3     1  UNL1        0.1047
      3 C         140.5434  145.5360  159.0527 C.3     1  UNL1        0.1595
      4 O         139.6637  145.6011  160.2659 O.3     1  UNL1       -0.3516
      5 C         140.0373  144.8424  161.5047 C.3     1  UNL1        0.1507
      6 C         141.2906  144.0186  161.5304 C.3     1  UNL1        0.1039
      7 C         143.4236  143.1297  160.3430 C.3     1  UNL1        0.0938
      8 C         144.1560  142.9186  161.6348 C.3     1  UNL1        0.1082
      9 N         143.7319  139.3796  163.3800 N.am    1  UNL1       -0.2921
     10 C         143.4333  140.7710  162.9059 C.2     1  UNL1        0.3007
     11 O         142.1133  141.4062  163.2287 O.2     1  UNL1       -0.2528
     12 N         144.4546  141.5272  162.1090 N.am    1  UNL1       -0.2875
     13 H         144.5983  138.9627  163.1682 H       1  UNL1        0.1508
     14 H         145.3210  141.1103  161.8971 H       1  UNL1        0.1510
     15 C         142.1765  138.0145  162.9145 C.3     1  UNL1        0.0197
     16 C         142.7107  138.6234  164.1769 C.3     1  UNL1        0.0583
     17 C         143.2448  139.2323  165.4394 C.3     1  UNL1        0.0197
     18 C         141.6893  137.8671  164.9739 C.3     1  UNL1        0.0197
     19 C         139.1575  144.9075  162.7180 C.3     1  UNL1        0.1207
     20 N         139.4247  144.0068  163.8873 N.am    1  UNL1       -0.2985
     21 C         138.8121  142.6384  163.9354 C.2     1  UNL1        0.2460
     22 O         137.9324  142.1707  162.8141 O.2     1  UNL1       -0.2701
     23 H         140.0021  144.3138  164.6233 H       1  UNL1        0.1498
     24 C         139.0793  141.7378  165.1047 C.ar    1  UNL1        0.0550
     25 C         140.0881  142.1342  166.1417 C.ar    1  UNL1        0.0160
     26 C         140.3552  141.2335  167.3110 C.ar    1  UNL1        0.0587
     27 CL        141.3640  141.6299  168.3480 Cl      1  UNL1       -0.0822
     28 C         139.6136  139.9364  167.4435 C.ar    1  UNL1        0.0228
     29 C         138.6049  139.5399  166.4065 C.ar    1  UNL1        0.0587
     30 CL        137.8633  138.2429  166.5389 Cl      1  UNL1       -0.0822
     31 C         138.3377  140.4407  165.2371 C.ar    1  UNL1        0.0160
@<TRIPOS>BOND
     1    15    16    1
     2    16    17    1
     3    16    18    1
     4    16     9    1
     5     9    10   am
     6    10    11    2
     7    10    12   am
     8    12     8    1
     9     8     7    1
    10     7     1    1
    11     1     2    1
    12     2     3    1
    13     3     4    1
    14     4     5    1
    15     5    19    1
    16    19    20    1
    17    20    21   am
    18    21    22    2
    19    21    24    1
    20    24    25   ar
    21    25    26   ar
    22    26    27    1
    23    26    28   ar
    24    28    29   ar
    25    29    30    1
    26    29    31   ar
    27     5     6    1
    28     6     1    1
    29    31    24   ar
    30     9    13    1
    31    12    14    1
    32    20    23    1
