@<TRIPOS>MOLECULE
*****
 35 38 0 0 0
SMALL
GASTEIGER

@<TRIPOS>ATOM
      1 C         138.5225  142.3920  158.8881 C.3     1  UNL1        0.0309
      2 C         139.5879  143.4454  158.9606 C.ar    1  UNL1       -0.0200
      3 C         139.9934  144.0119  160.2890 C.ar    1  UNL1        0.0540
      4 C         141.0588  145.0653  160.3615 C.ar    1  UNL1        0.1013
      5 N         141.7188  145.5521  159.1056 N.ar    1  UNL1       -0.2470
      6 C         141.3134  144.9856  157.7771 C.ar    1  UNL1        0.0710
      7 C         140.2480  143.9322  157.7046 C.ar    1  UNL1       -0.0097
      8 C         139.8425  143.3657  156.3762 C.3     1  UNL1        0.0446
      9 C         140.5025  143.8526  155.1203 C.3     1  UNL1        0.0773
     10 N         141.5680  144.9060  155.1928 N.3     1  UNL1       -0.2644
     11 C         141.9734  145.4725  156.5212 C.3     1  UNL1        0.1184
     12 C         139.3333  143.5250  161.5450 C.ar    1  UNL1        0.2048
     13 N         137.8857  143.6907  161.9013 N.ar    1  UNL1       -0.0556
     14 O         137.6627  143.0551  163.2417 O.2     1  UNL1       -0.3324
     15 C         138.9725  142.4967  163.7136 C.ar    1  UNL1        0.2600
     16 N         140.0050  142.7872  162.6650 N.ar    1  UNL1       -0.1869
     17 C         139.2085  141.7747  165.0070 C.ar    1  UNL1        0.0569
     18 C         140.2707  142.2547  165.9510 C.ar    1  UNL1        0.0079
     19 C         140.5066  141.5327  167.2444 C.ar    1  UNL1        0.0377
     20 C         139.6803  140.3306  167.5939 C.ar    1  UNL1        0.1479
     21 C         138.6179  139.8505  166.6499 C.ar    1  UNL1        0.1024
     22 C         138.3821  140.5727  165.3564 C.ar    1  UNL1        0.0181
     23 C         137.7916  138.6485  166.9993 C.1     1  UNL1        0.1035
     24 N         136.9652  137.4464  167.3488 N.1     1  UNL1       -0.1907
     25 O         139.9162  139.6086  168.8873 O.3     1  UNL1       -0.4785
     26 C         141.0673  140.0001  169.7657 C.3     1  UNL1        0.1662
     27 C         140.8683  141.0094  170.8574 C.3     1  UNL1        0.0472
     28 C         142.4174  139.3823  169.5525 C.3     1  UNL1        0.0472
     29 C         142.2280  145.3928  153.9369 C.3     1  UNL1        0.1169
     30 C         143.6782  145.0999  153.6896 C.3     1  UNL1        0.1555
     31 O         144.3971  144.0977  154.5435 O.3     1  UNL1       -0.3805
     32 H         144.4512  144.4281  155.4538 H       1  UNL1        0.2105
     33 C         141.4378  146.1726  152.9282 C.3     1  UNL1        0.1555
     34 O         140.1969  146.9026  153.3492 O.3     1  UNL1       -0.3805
     35 H         139.5224  146.2619  153.6238 H       1  UNL1        0.2105
@<TRIPOS>BOND
     1     1     2    1
     2     2     3   ar
     3     3    12    1
     4    12    13   ar
     5    13    14   ar
     6    14    15   ar
     7    15    17    1
     8    17    18   ar
     9    18    19   ar
    10    19    20   ar
    11    20    25    1
    12    25    26    1
    13    26    27    1
    14    26    28    1
    15    20    21   ar
    16    21    23    1
    17    23    24    3
    18    21    22   ar
    19    15    16   ar
    20     3     4   ar
    21     4     5   ar
    22     5     6   ar
    23     6     7   ar
    24     7     8    1
    25     8     9    1
    26     9    10    1
    27    10    29    1
    28    29    30    1
    29    30    31    1
    30    29    33    1
    31    33    34    1
    32    10    11    1
    33     7     2   ar
    34    16    12   ar
    35    11     6    1
    36    22    17   ar
    37    31    32    1
    38    34    35    1
@<TRIPOS>MOLECULE
*****
 35 38 0 0 0
SMALL
GASTEIGER

@<TRIPOS>ATOM
      1 C         140.1839  141.9595  162.9672 C.3     1  UNL1        0.0309
      2 C         139.7908  140.8447  163.8906 C.ar    1  UNL1       -0.0200
      3 C         139.2979  139.5441  163.3291 C.ar    1  UNL1        0.0540
      4 C         138.9048  138.4294  164.2525 C.ar    1  UNL1        0.1013
      5 N         139.0047  138.6152  165.7376 N.ar    1  UNL1       -0.2470
      6 C         139.4977  139.9159  166.2993 C.ar    1  UNL1        0.0710
      7 C         139.8907  141.0306  165.3758 C.ar    1  UNL1       -0.0097
      8 C         140.3837  142.3312  165.9374 C.3     1  UNL1        0.0446
      9 C         140.4836  142.5171  167.4224 C.3     1  UNL1        0.0773
     10 N         140.0905  141.4023  168.3459 N.3     1  UNL1       -0.2644
     11 C         139.5976  140.1017  167.7843 C.3     1  UNL1        0.1184
     12 C         139.1980  139.3582  161.8439 C.ar    1  UNL1        0.2048
     13 N         138.0344  139.7508  160.9826 N.ar    1  UNL1       -0.0556
     14 O         138.3614  139.3824  159.5657 O.2     1  UNL1       -0.3324
     15 C         139.7271  138.7621  159.5515 C.ar    1  UNL1        0.2600
     16 N         140.2441  138.7472  160.9595 N.ar    1  UNL1       -0.1869
     17 C         140.4489  138.2471  158.3418 C.ar    1  UNL1        0.0569
     18 C         141.9304  138.0174  158.3935 C.ar    1  UNL1        0.0079
     19 C         142.6522  137.5024  157.1837 C.ar    1  UNL1        0.0377
     20 C         141.8927  137.2172  155.9221 C.ar    1  UNL1        0.1479
     21 C         140.4113  137.4469  155.8702 C.ar    1  UNL1        0.1024
     22 C         139.6895  137.9619  157.0801 C.ar    1  UNL1        0.0181
     23 C         139.6518  137.1617  154.6085 C.1     1  UNL1        0.1035
     24 N         138.8923  136.8764  153.3469 N.1     1  UNL1       -0.1907
     25 O         142.6146  136.7022  154.7122 O.3     1  UNL1       -0.4785
     26 C         142.7018  135.2257  154.4628 C.3     1  UNL1        0.1662
     27 C         143.4725  134.3500  155.4058 C.3     1  UNL1        0.0472
     28 C         142.0182  134.6249  153.2705 C.3     1  UNL1        0.0472
     29 C         140.1904  141.5882  169.8310 C.3     1  UNL1        0.1169
     30 C         140.0261  142.9541  170.4286 C.3     1  UNL1        0.1555
     31 O         138.9352  143.2102  171.4259 O.3     1  UNL1       -0.3805
     32 H         138.0725  143.1180  170.9922 H       1  UNL1        0.2105
     33 C         140.4546  140.4081  170.7185 C.3     1  UNL1        0.1555
     34 O         140.6081  140.6017  172.1979 O.3     1  UNL1       -0.3805
     35 H         141.4086  141.1202  172.3748 H       1  UNL1        0.2105
@<TRIPOS>BOND
     1     1     2    1
     2     2     3   ar
     3     3    12    1
     4    12    13   ar
     5    13    14   ar
     6    14    15   ar
     7    15    17    1
     8    17    18   ar
     9    18    19   ar
    10    19    20   ar
    11    20    25    1
    12    25    26    1
    13    26    27    1
    14    26    28    1
    15    20    21   ar
    16    21    23    1
    17    23    24    3
    18    21    22   ar
    19    15    16   ar
    20     3     4   ar
    21     4     5   ar
    22     5     6   ar
    23     6     7   ar
    24     7     8    1
    25     8     9    1
    26     9    10    1
    27    10    29    1
    28    29    30    1
    29    30    31    1
    30    29    33    1
    31    33    34    1
    32    10    11    1
    33     7     2   ar
    34    16    12   ar
    35    11     6    1
    36    22    17   ar
    37    31    32    1
    38    34    35    1
@<TRIPOS>MOLECULE
*****
 35 38 0 0 0
SMALL
GASTEIGER

@<TRIPOS>ATOM
      1 C         142.0787  140.6777  162.7642 C.3     1  UNL1        0.0309
      2 C         142.7633  141.6304  163.6990 C.ar    1  UNL1       -0.0200
      3 C         143.5704  142.7695  163.1504 C.ar    1  UNL1        0.0540
      4 C         144.2550  143.7222  164.0851 C.ar    1  UNL1        0.1013
      5 N         144.1325  143.5358  165.5684 N.ar    1  UNL1       -0.2470
      6 C         143.3253  142.3966  166.1170 C.ar    1  UNL1        0.0710
      7 C         142.6407  141.4440  165.1823 C.ar    1  UNL1       -0.0097
      8 C         141.8336  140.3049  165.7309 C.3     1  UNL1        0.0446
      9 C         141.7111  140.1185  167.2142 C.3     1  UNL1        0.0773
     10 N         142.3956  141.0712  168.1489 N.3     1  UNL1       -0.2644
     11 C         143.2028  142.2102  167.6003 C.3     1  UNL1        0.1184
     12 C         143.6930  142.9560  161.6670 C.ar    1  UNL1        0.2048
     13 N         142.7651  143.7533  160.7991 N.ar    1  UNL1       -0.0556
     14 O         143.2636  143.6679  159.3868 O.2     1  UNL1       -0.3324
     15 C         144.4995  142.8179  159.3821 C.ar    1  UNL1        0.2600
     16 N         144.7649  142.3779  160.7913 N.ar    1  UNL1       -0.1869
     17 C         145.3251  142.4691  158.1793 C.ar    1  UNL1        0.0569
     18 C         146.7012  143.0447  158.0216 C.ar    1  UNL1        0.0079
     19 C         147.5268  142.6959  156.8188 C.ar    1  UNL1        0.0377
     20 C         146.9762  141.7715  155.7737 C.ar    1  UNL1        0.1479
     21 C         145.6000  141.1958  155.9314 C.ar    1  UNL1        0.1024
     22 C         144.7745  141.5447  157.1342 C.ar    1  UNL1        0.0181
     23 C         145.0495  140.2714  154.8862 C.1     1  UNL1        0.1035
     24 N         144.4989  139.3469  153.8411 N.1     1  UNL1       -0.1907
     25 O         147.8018  141.4227  154.5709 O.3     1  UNL1       -0.4785
     26 C         147.9268  142.3983  153.4384 C.3     1  UNL1        0.1662
     27 C         149.1677  143.2291  153.2977 C.3     1  UNL1        0.0472
     28 C         146.8108  142.5430  152.4466 C.3     1  UNL1        0.0472
     29 C         142.2731  140.8847  169.6323 C.3     1  UNL1        0.1169
     30 C         141.6782  141.9712  170.4781 C.3     1  UNL1        0.1555
     31 O         142.1758  142.1908  171.8761 O.3     1  UNL1       -0.3805
     32 H         141.9550  141.4204  172.4226 H       1  UNL1        0.2105
     33 C         142.7454  139.6117  170.2697 C.3     1  UNL1        0.1555
     34 O         143.7862  139.6545  171.3489 O.3     1  UNL1       -0.3805
     35 H         144.6246  139.9707  170.9773 H       1  UNL1        0.2105
@<TRIPOS>BOND
     1     1     2    1
     2     2     3   ar
     3     3    12    1
     4    12    13   ar
     5    13    14   ar
     6    14    15   ar
     7    15    17    1
     8    17    18   ar
     9    18    19   ar
    10    19    20   ar
    11    20    25    1
    12    25    26    1
    13    26    27    1
    14    26    28    1
    15    20    21   ar
    16    21    23    1
    17    23    24    3
    18    21    22   ar
    19    15    16   ar
    20     3     4   ar
    21     4     5   ar
    22     5     6   ar
    23     6     7   ar
    24     7     8    1
    25     8     9    1
    26     9    10    1
    27    10    29    1
    28    29    30    1
    29    30    31    1
    30    29    33    1
    31    33    34    1
    32    10    11    1
    33     7     2   ar
    34    16    12   ar
    35    11     6    1
    36    22    17   ar
    37    31    32    1
    38    34    35    1
@<TRIPOS>MOLECULE
*****
 35 38 0 0 0
SMALL
GASTEIGER

@<TRIPOS>ATOM
      1 C         142.4928  144.1555  163.8876 C.3     1  UNL1        0.0309
      2 C         141.2446  143.4456  164.3213 C.ar    1  UNL1       -0.0200
      3 C         139.9960  143.5526  163.4969 C.ar    1  UNL1        0.0540
      4 C         138.7478  142.8427  163.9306 C.ar    1  UNL1        0.1013
      5 N         138.7482  142.0258  165.1886 N.ar    1  UNL1       -0.2470
      6 C         139.9969  141.9187  166.0130 C.ar    1  UNL1        0.0710
      7 C         141.2450  142.6286  165.5793 C.ar    1  UNL1       -0.0097
      8 C         142.4936  142.5216  166.4037 C.3     1  UNL1        0.0446
      9 C         142.4940  141.7047  167.6617 C.3     1  UNL1        0.0773
     10 N         141.2458  140.9948  168.0954 N.3     1  UNL1       -0.2644
     11 C         139.9972  141.1018  167.2710 C.3     1  UNL1        0.1184
     12 C         139.9956  144.3695  162.2389 C.ar    1  UNL1        0.2048
     13 N         139.3220  145.6963  162.0495 N.ar    1  UNL1       -0.0556
     14 O         139.5787  146.1499  160.6429 O.2     1  UNL1       -0.3324
     15 C         140.4110  145.1034  159.9630 C.ar    1  UNL1        0.2600
     16 N         140.6687  144.0031  160.9494 N.ar    1  UNL1       -0.1869
     17 C         140.8999  145.1492  158.5457 C.ar    1  UNL1        0.0569
     18 C         141.9955  144.2267  158.1000 C.ar    1  UNL1        0.0079
     19 C         142.4843  144.2725  156.6827 C.ar    1  UNL1        0.0377
     20 C         141.8775  145.2408  155.7110 C.ar    1  UNL1        0.1479
     21 C         140.7819  146.1633  156.1566 C.ar    1  UNL1        0.1024
     22 C         140.2931  146.1175  157.5740 C.ar    1  UNL1        0.0181
     23 C         140.1751  147.1316  155.1849 C.1     1  UNL1        0.1035
     24 N         139.5683  148.0999  154.2132 N.1     1  UNL1       -0.1907
     25 O         142.3664  145.2866  154.2936 O.3     1  UNL1       -0.4785
     26 C         141.8938  144.2633  153.3038 C.3     1  UNL1        0.1662
     27 C         140.4855  144.3116  152.7897 C.3     1  UNL1        0.0472
     28 C         142.8296  143.1919  152.8282 C.3     1  UNL1        0.0472
     29 C         141.2463  140.1779  169.3534 C.3     1  UNL1        0.1169
     30 C         140.0527  140.1989  170.2617 C.3     1  UNL1        0.1555
     31 O         140.0204  139.3217  171.4781 O.3     1  UNL1       -0.3805
     32 H         140.0003  138.3911  171.2052 H       1  UNL1        0.2105
     33 C         142.4403  139.3400  169.7032 C.3     1  UNL1        0.1555
     34 O         143.1747  139.5805  170.9887 O.3     1  UNL1       -0.3805
     35 H         143.5922  140.4556  170.9637 H       1  UNL1        0.2105
@<TRIPOS>BOND
     1     1     2    1
     2     2     3   ar
     3     3    12    1
     4    12    13   ar
     5    13    14   ar
     6    14    15   ar
     7    15    17    1
     8    17    18   ar
     9    18    19   ar
    10    19    20   ar
    11    20    25    1
    12    25    26    1
    13    26    27    1
    14    26    28    1
    15    20    21   ar
    16    21    23    1
    17    23    24    3
    18    21    22   ar
    19    15    16   ar
    20     3     4   ar
    21     4     5   ar
    22     5     6   ar
    23     6     7   ar
    24     7     8    1
    25     8     9    1
    26     9    10    1
    27    10    29    1
    28    29    30    1
    29    30    31    1
    30    29    33    1
    31    33    34    1
    32    10    11    1
    33     7     2   ar
    34    16    12   ar
    35    11     6    1
    36    22    17   ar
    37    31    32    1
    38    34    35    1
@<TRIPOS>MOLECULE
*****
 35 38 0 0 0
SMALL
GASTEIGER

@<TRIPOS>ATOM
      1 C         138.0688  140.3815  164.3494 C.3     1  UNL1        0.0309
      2 C         139.2786  141.1878  164.7183 C.ar    1  UNL1       -0.0200
      3 C         139.8650  142.1542  163.7323 C.ar    1  UNL1        0.0540
      4 C         141.0749  142.9605  164.1012 C.ar    1  UNL1        0.1013
      5 N         141.6983  142.8005  165.4560 N.ar    1  UNL1       -0.2470
      6 C         141.1119  141.8341  166.4421 C.ar    1  UNL1        0.0710
      7 C         139.9021  141.0277  166.0732 C.ar    1  UNL1       -0.0097
      8 C         139.3157  140.0613  167.0592 C.3     1  UNL1        0.0446
      9 C         139.9391  139.9013  168.4140 C.3     1  UNL1        0.0773
     10 N         141.1490  140.7076  168.7829 N.3     1  UNL1       -0.2644
     11 C         141.7354  141.6740  167.7969 C.3     1  UNL1        0.1184
     12 C         139.2416  142.3143  162.3774 C.ar    1  UNL1        0.2048
     13 N         138.2534  143.3708  161.9809 N.ar    1  UNL1       -0.0556
     14 O         137.8979  143.1555  160.5395 O.2     1  UNL1       -0.3324
     15 C         138.6665  141.9658  160.0453 C.ar    1  UNL1        0.2600
     16 N         139.4968  141.4459  161.1812 N.ar    1  UNL1       -0.1869
     17 C         138.6138  141.3961  158.6588 C.ar    1  UNL1        0.0569
     18 C         137.8859  142.1316  157.5728 C.ar    1  UNL1        0.0079
     19 C         137.8333  141.5618  156.1863 C.ar    1  UNL1        0.0377
     20 C         138.5084  140.2566  155.8856 C.ar    1  UNL1        0.1479
     21 C         139.2364  139.5210  156.9716 C.ar    1  UNL1        0.1024
     22 C         139.2890  140.0908  158.3581 C.ar    1  UNL1        0.0181
     23 C         139.9115  138.2158  156.6709 C.1     1  UNL1        0.1035
     24 N         140.5867  136.9105  156.3702 N.1     1  UNL1       -0.1907
     25 O         138.4558  139.6868  154.4990 O.3     1  UNL1       -0.4785
     26 C         137.3801  138.7085  154.1305 C.3     1  UNL1        0.1662
     27 C         135.9420  139.0379  154.4011 C.3     1  UNL1        0.0472
     28 C         137.7427  137.4007  153.4915 C.3     1  UNL1        0.0472
     29 C         141.7724  140.5476  170.1378 C.3     1  UNL1        0.1169
     30 C         142.8478  139.5241  170.3524 C.3     1  UNL1        0.1555
     31 O         143.8518  139.7102  171.4513 O.3     1  UNL1       -0.3805
     32 H         144.4018  140.4856  171.2588 H       1  UNL1        0.2105
     33 C         141.3205  141.4110  171.2781 C.3     1  UNL1        0.1555
     34 O         142.2812  142.3657  171.9226 O.3     1  UNL1       -0.3805
     35 H         142.9847  141.8663  172.3661 H       1  UNL1        0.2105
@<TRIPOS>BOND
     1     1     2    1
     2     2     3   ar
     3     3    12    1
     4    12    13   ar
     5    13    14   ar
     6    14    15   ar
     7    15    17    1
     8    17    18   ar
     9    18    19   ar
    10    19    20   ar
    11    20    25    1
    12    25    26    1
    13    26    27    1
    14    26    28    1
    15    20    21   ar
    16    21    23    1
    17    23    24    3
    18    21    22   ar
    19    15    16   ar
    20     3     4   ar
    21     4     5   ar
    22     5     6   ar
    23     6     7   ar
    24     7     8    1
    25     8     9    1
    26     9    10    1
    27    10    29    1
    28    29    30    1
    29    30    31    1
    30    29    33    1
    31    33    34    1
    32    10    11    1
    33     7     2   ar
    34    16    12   ar
    35    11     6    1
    36    22    17   ar
    37    31    32    1
    38    34    35    1
@<TRIPOS>MOLECULE
*****
 35 38 0 0 0
SMALL
GASTEIGER

@<TRIPOS>ATOM
      1 C         138.7675  138.8382  164.0635 C.3     1  UNL1        0.0309
      2 C         139.3807  140.1794  164.3376 C.ar    1  UNL1       -0.0200
      3 C         139.7320  141.0903  163.1988 C.ar    1  UNL1        0.0540
      4 C         140.3451  142.4315  163.4729 C.ar    1  UNL1        0.1013
      5 N         140.6070  142.8619  164.8857 N.ar    1  UNL1       -0.2470
      6 C         140.2557  141.9510  166.0246 C.ar    1  UNL1        0.0710
      7 C         139.6425  140.6097  165.7505 C.ar    1  UNL1       -0.0097
      8 C         139.2912  139.6989  166.8893 C.3     1  UNL1        0.0446
      9 C         139.5531  140.1292  168.3021 C.3     1  UNL1        0.0773
     10 N         140.1663  141.4705  168.5762 N.3     1  UNL1       -0.2644
     11 C         140.5176  142.3813  167.4374 C.3     1  UNL1        0.1184
     12 C         139.4701  140.6599  161.7859 C.ar    1  UNL1        0.2048
     13 N         138.1630  140.7708  161.0584 N.ar    1  UNL1       -0.0556
     14 O         138.3544  140.2226  159.6753 O.2     1  UNL1       -0.3324
     15 C         139.7798  139.7729  159.5480 C.ar    1  UNL1        0.2600
     16 N         140.4693  140.0433  160.8524 N.ar    1  UNL1       -0.1869
     17 C         140.4057  139.1606  158.3303 C.ar    1  UNL1        0.0569
     18 C         139.6392  138.1620  157.5146 C.ar    1  UNL1        0.0079
     19 C         140.2651  137.5496  156.2968 C.ar    1  UNL1        0.0377
     20 C         141.6576  137.9357  155.8945 C.ar    1  UNL1        0.1479
     21 C         142.4243  138.9343  156.7102 C.ar    1  UNL1        0.1024
     22 C         141.7982  139.5467  157.9280 C.ar    1  UNL1        0.0181
     23 C         143.8168  139.3205  156.3080 C.1     1  UNL1        0.1035
     24 N         145.2093  139.7066  155.9057 N.1     1  UNL1       -0.1907
     25 O         142.2836  137.3233  154.6767 O.3     1  UNL1       -0.4785
     26 C         142.8014  135.9164  154.7266 C.3     1  UNL1        0.1662
     27 C         142.0784  134.8247  153.9948 C.3     1  UNL1        0.0472
     28 C         144.0423  135.6013  155.5082 C.3     1  UNL1        0.0472
     29 C         140.4281  141.9008  169.9891 C.3     1  UNL1        0.1169
     30 C         141.1733  140.9942  170.9234 C.3     1  UNL1        0.1555
     31 O         140.5569  140.5942  172.2311 O.3     1  UNL1       -0.3805
     32 H         140.4683  141.3755  172.7992 H       1  UNL1        0.2105
     33 C         139.9448  143.2377  170.4677 C.3     1  UNL1        0.1555
     34 O         138.9025  143.3173  171.5434 O.3     1  UNL1       -0.3805
     35 H         138.0673  142.9518  171.2121 H       1  UNL1        0.2105
@<TRIPOS>BOND
     1     1     2    1
     2     2     3   ar
     3     3    12    1
     4    12    13   ar
     5    13    14   ar
     6    14    15   ar
     7    15    17    1
     8    17    18   ar
     9    18    19   ar
    10    19    20   ar
    11    20    25    1
    12    25    26    1
    13    26    27    1
    14    26    28    1
    15    20    21   ar
    16    21    23    1
    17    23    24    3
    18    21    22   ar
    19    15    16   ar
    20     3     4   ar
    21     4     5   ar
    22     5     6   ar
    23     6     7   ar
    24     7     8    1
    25     8     9    1
    26     9    10    1
    27    10    29    1
    28    29    30    1
    29    30    31    1
    30    29    33    1
    31    33    34    1
    32    10    11    1
    33     7     2   ar
    34    16    12   ar
    35    11     6    1
    36    22    17   ar
    37    31    32    1
    38    34    35    1
@<TRIPOS>MOLECULE
*****
 35 38 0 0 0
SMALL
GASTEIGER

@<TRIPOS>ATOM
      1 C         140.8454  145.3560  160.7456 C.3     1  UNL1        0.0309
      2 C         140.3357  144.4205  159.6896 C.ar    1  UNL1       -0.0200
      3 C         139.3751  143.3282  160.0555 C.ar    1  UNL1        0.0540
      4 C         138.8654  142.3928  158.9995 C.ar    1  UNL1        0.1013
      5 N         139.3163  142.5496  157.5776 N.ar    1  UNL1       -0.2470
      6 C         140.2770  143.6420  157.2115 C.ar    1  UNL1        0.0710
      7 C         140.7867  144.5774  158.2675 C.ar    1  UNL1       -0.0097
      8 C         141.7474  145.6698  157.9016 C.3     1  UNL1        0.0446
      9 C         142.1983  145.8266  156.4796 C.3     1  UNL1        0.0773
     10 N         141.6886  144.8912  155.4236 N.3     1  UNL1       -0.2644
     11 C         140.7280  143.7988  155.7896 C.3     1  UNL1        0.1184
     12 C         138.9241  143.1713  161.4775 C.ar    1  UNL1        0.2048
     13 N         137.7773  143.8910  162.1232 N.ar    1  UNL1       -0.0556
     14 O         137.6851  143.4317  163.5482 O.2     1  UNL1       -0.3324
     15 C         138.7750  142.4282  163.7832 C.ar    1  UNL1        0.2600
     16 N         139.5407  142.2673  162.5034 N.ar    1  UNL1       -0.1869
     17 C         139.0507  141.7114  165.0716 C.ar    1  UNL1        0.0569
     18 C         140.1033  142.2282  166.0071 C.ar    1  UNL1        0.0079
     19 C         140.3790  141.5115  167.2955 C.ar    1  UNL1        0.0377
     20 C         139.6022  140.2778  167.6486 C.ar    1  UNL1        0.1479
     21 C         138.5496  139.7609  166.7132 C.ar    1  UNL1        0.1024
     22 C         138.2739  140.4778  165.4247 C.ar    1  UNL1        0.0181
     23 C         137.7727  138.5273  167.0663 C.1     1  UNL1        0.1035
     24 N         136.9959  137.2937  167.4194 N.1     1  UNL1       -0.1907
     25 O         139.8779  139.5611  168.9371 O.3     1  UNL1       -0.4785
     26 C         141.0626  139.9479  169.7719 C.3     1  UNL1        0.1662
     27 C         140.8887  140.8797  170.9345 C.3     1  UNL1        0.0472
     28 C         142.4211  139.4030  169.4441 C.3     1  UNL1        0.0472
     29 C         142.1396  145.0481  154.0016 C.3     1  UNL1        0.1169
     30 C         143.4177  144.4092  153.5453 C.3     1  UNL1        0.1555
     31 O         144.6588  144.5364  154.3782 O.3     1  UNL1       -0.3805
     32 H         144.9400  145.4645  154.3999 H       1  UNL1        0.2105
     33 C         141.3124  145.8438  153.0359 C.3     1  UNL1        0.1555
     34 O         140.0725  146.5428  153.5091 O.3     1  UNL1       -0.3805
     35 H         139.4145  145.8846  153.7824 H       1  UNL1        0.2105
@<TRIPOS>BOND
     1     1     2    1
     2     2     3   ar
     3     3    12    1
     4    12    13   ar
     5    13    14   ar
     6    14    15   ar
     7    15    17    1
     8    17    18   ar
     9    18    19   ar
    10    19    20   ar
    11    20    25    1
    12    25    26    1
    13    26    27    1
    14    26    28    1
    15    20    21   ar
    16    21    23    1
    17    23    24    3
    18    21    22   ar
    19    15    16   ar
    20     3     4   ar
    21     4     5   ar
    22     5     6   ar
    23     6     7   ar
    24     7     8    1
    25     8     9    1
    26     9    10    1
    27    10    29    1
    28    29    30    1
    29    30    31    1
    30    29    33    1
    31    33    34    1
    32    10    11    1
    33     7     2   ar
    34    16    12   ar
    35    11     6    1
    36    22    17   ar
    37    31    32    1
    38    34    35    1
@<TRIPOS>MOLECULE
*****
 35 38 0 0 0
SMALL
GASTEIGER

@<TRIPOS>ATOM
      1 C         144.0050  143.1274  163.9888 C.3     1  UNL1        0.0309
      2 C         142.5622  142.8943  164.3265 C.ar    1  UNL1       -0.0200
      3 C         141.5098  143.0499  163.2691 C.ar    1  UNL1        0.0540
      4 C         140.0671  142.8167  163.6068 C.ar    1  UNL1        0.1013
      5 N         139.6767  142.4279  165.0019 N.ar    1  UNL1       -0.2470
      6 C         140.7291  142.2723  166.0595 C.ar    1  UNL1        0.0710
      7 C         142.1719  142.5055  165.7218 C.ar    1  UNL1       -0.0097
      8 C         143.2243  142.3499  166.7792 C.3     1  UNL1        0.0446
      9 C         142.8339  141.9612  168.1743 C.3     1  UNL1        0.0773
     10 N         141.3912  141.7280  168.5120 N.3     1  UNL1       -0.2644
     11 C         140.3388  141.8836  167.4546 C.3     1  UNL1        0.1184
     12 C         141.9002  143.4386  161.8739 C.ar    1  UNL1        0.2048
     13 N         141.8481  144.8223  161.2971 N.ar    1  UNL1       -0.0556
     14 O         142.3269  144.7509  159.8772 O.2     1  UNL1       -0.3324
     15 C         142.6748  143.3230  159.5767 C.ar    1  UNL1        0.2600
     16 N         142.4111  142.5120  160.8107 N.ar    1  UNL1       -0.1869
     17 C         143.1951  142.7983  158.2714 C.ar    1  UNL1        0.0569
     18 C         142.2382  142.3122  157.2235 C.ar    1  UNL1        0.0079
     19 C         142.7585  141.7875  155.9182 C.ar    1  UNL1        0.0377
     20 C         144.2357  141.7489  155.6607 C.ar    1  UNL1        0.1479
     21 C         145.1927  142.2350  156.7085 C.ar    1  UNL1        0.1024
     22 C         144.6723  142.7597  158.0139 C.ar    1  UNL1        0.0181
     23 C         146.6699  142.1963  156.4510 C.1     1  UNL1        0.1035
     24 N         148.1471  142.1577  156.1935 N.1     1  UNL1       -0.1907
     25 O         144.7560  141.2241  154.3553 O.3     1  UNL1       -0.4785
     26 C         144.5010  139.7985  153.9649 C.3     1  UNL1        0.1662
     27 C         144.8194  138.6898  154.9239 C.3     1  UNL1        0.0472
     28 C         143.9277  139.4814  152.6156 C.3     1  UNL1        0.0472
     29 C         141.0008  141.3392  169.9072 C.3     1  UNL1        0.1169
     30 C         139.7623  140.5258  170.1404 C.3     1  UNL1        0.1555
     31 O         139.7319  139.5036  171.2379 O.3     1  UNL1       -0.3805
     32 H         140.3579  138.7913  171.0338 H       1  UNL1        0.2105
     33 C         141.8490  141.7639  171.0692 C.3     1  UNL1        0.1555
     34 O         142.2379  140.7652  172.1185 O.3     1  UNL1       -0.3805
     35 H         141.4456  140.4714  172.5948 H       1  UNL1        0.2105
@<TRIPOS>BOND
     1     1     2    1
     2     2     3   ar
     3     3    12    1
     4    12    13   ar
     5    13    14   ar
     6    14    15   ar
     7    15    17    1
     8    17    18   ar
     9    18    19   ar
    10    19    20   ar
    11    20    25    1
    12    25    26    1
    13    26    27    1
    14    26    28    1
    15    20    21   ar
    16    21    23    1
    17    23    24    3
    18    21    22   ar
    19    15    16   ar
    20     3     4   ar
    21     4     5   ar
    22     5     6   ar
    23     6     7   ar
    24     7     8    1
    25     8     9    1
    26     9    10    1
    27    10    29    1
    28    29    30    1
    29    30    31    1
    30    29    33    1
    31    33    34    1
    32    10    11    1
    33     7     2   ar
    34    16    12   ar
    35    11     6    1
    36    22    17   ar
    37    31    32    1
    38    34    35    1
@<TRIPOS>MOLECULE
*****
 35 38 0 0 0
SMALL
GASTEIGER

@<TRIPOS>ATOM
      1 C         143.6105  138.7383  163.8824 C.3     1  UNL1        0.0309
      2 C         142.7753  139.9810  163.9723 C.ar    1  UNL1       -0.0200
      3 C         142.3056  140.6612  162.7206 C.ar    1  UNL1        0.0540
      4 C         141.4704  141.9039  162.8106 C.ar    1  UNL1        0.1013
      5 N         141.1049  142.4665  164.1522 N.ar    1  UNL1       -0.2470
      6 C         141.5746  141.7863  165.4039 C.ar    1  UNL1        0.0710
      7 C         142.4098  140.5436  165.3140 C.ar    1  UNL1       -0.0097
      8 C         142.8796  139.8634  166.5656 C.3     1  UNL1        0.0446
      9 C         142.5141  140.4260  167.9072 C.3     1  UNL1        0.0773
     10 N         141.6789  141.6687  167.9971 N.3     1  UNL1       -0.2644
     11 C         141.2092  142.3489  166.7455 C.3     1  UNL1        0.1184
     12 C         142.6710  140.0986  161.3789 C.ar    1  UNL1        0.2048
     13 N         143.9322  140.3822  160.6180 N.ar    1  UNL1       -0.0556
     14 O         143.8801  139.6126  159.3314 O.2     1  UNL1       -0.3324
     15 C         142.5868  138.8535  159.2974 C.ar    1  UNL1        0.2600
     16 N         141.8396  139.1539  160.5628 N.ar    1  UNL1       -0.1869
     17 C         142.1223  137.9522  158.1920 C.ar    1  UNL1        0.0569
     18 C         142.9775  136.8004  157.7539 C.ar    1  UNL1        0.0079
     19 C         142.5130  135.8992  156.6485 C.ar    1  UNL1        0.0377
     20 C         141.1932  136.1497  155.9812 C.ar    1  UNL1        0.1479
     21 C         140.3379  137.3015  156.4193 C.ar    1  UNL1        0.1024
     22 C         140.8025  138.2027  157.5247 C.ar    1  UNL1        0.0181
     23 C         139.0181  137.5520  155.7519 C.1     1  UNL1        0.1035
     24 N         137.6983  137.8025  155.0846 N.1     1  UNL1       -0.1907
     25 O         140.7287  135.2484  154.8758 O.3     1  UNL1       -0.4785
     26 C         141.5642  135.0841  153.6409 C.3     1  UNL1        0.1662
     27 C         142.1174  133.7364  153.2835 C.3     1  UNL1        0.0472
     28 C         141.8465  136.2675  152.7635 C.3     1  UNL1        0.0472
     29 C         141.3134  142.2313  169.3388 C.3     1  UNL1        0.1169
     30 C         141.7583  141.5348  170.5906 C.3     1  UNL1        0.1555
     31 O         141.9975  142.3241  171.8435 O.3     1  UNL1       -0.3805
     32 H         142.7523  142.9190  171.7118 H       1  UNL1        0.2105
     33 C         140.5031  143.4904  169.4287 C.3     1  UNL1        0.1555
     34 O         139.7310  143.7979  170.6774 O.3     1  UNL1       -0.3805
     35 H         139.0253  143.1422  170.7909 H       1  UNL1        0.2105
@<TRIPOS>BOND
     1     1     2    1
     2     2     3   ar
     3     3    12    1
     4    12    13   ar
     5    13    14   ar
     6    14    15   ar
     7    15    17    1
     8    17    18   ar
     9    18    19   ar
    10    19    20   ar
    11    20    25    1
    12    25    26    1
    13    26    27    1
    14    26    28    1
    15    20    21   ar
    16    21    23    1
    17    23    24    3
    18    21    22   ar
    19    15    16   ar
    20     3     4   ar
    21     4     5   ar
    22     5     6   ar
    23     6     7   ar
    24     7     8    1
    25     8     9    1
    26     9    10    1
    27    10    29    1
    28    29    30    1
    29    30    31    1
    30    29    33    1
    31    33    34    1
    32    10    11    1
    33     7     2   ar
    34    16    12   ar
    35    11     6    1
    36    22    17   ar
    37    31    32    1
    38    34    35    1
