@<TRIPOS>MOLECULE
*****
 36 39 0 0 0
SMALL
GASTEIGER

@<TRIPOS>ATOM
      1 C         140.0552  143.1373  160.7817 C.ar    1  UNL1        0.0537
      2 C         139.5870  141.9354  160.0160 C.ar    1  UNL1        0.0060
      3 C         139.3737  140.6308  160.7250 C.ar    1  UNL1        0.0173
      4 C         139.6286  140.5282  162.1996 C.ar    1  UNL1        0.0594
      5 C         140.0967  141.7301  162.9652 C.ar    1  UNL1        0.0130
      6 C         140.3101  143.0346  162.2563 C.ar    1  UNL1        0.0057
      7 C         140.2642  141.3288  164.4009 C.ar    1  UNL1       -0.0091
      8 C         139.8996  139.8789  164.5225 C.ar    1  UNL1        0.0331
      9 N         139.5067  139.3841  163.1620 N.ar    1  UNL1       -0.3289
     10 C         139.0689  137.9900  162.8234 C.3     1  UNL1        0.1301
     11 C         139.9723  139.1965  165.8562 C.3     1  UNL1        0.0435
     12 C         140.4098  139.9641  167.0685 C.3     1  UNL1        0.0066
     13 C         140.7745  141.4140  166.9469 C.3     1  UNL1        0.0049
     14 C         140.7017  142.0963  165.6131 C.3     1  UNL1        0.0275
     15 C         141.2119  142.1815  168.1591 C.3     1  UNL1        0.0053
     16 C         140.2936  143.1934  168.7779 C.3     1  UNL1        0.0322
     17 C         140.7311  143.9609  169.9901 C.3     1  UNL1        0.1422
     18 O         142.0870  143.7166  170.5836 O.3     1  UNL1       -0.3538
     19 C         143.0053  142.7048  169.9648 C.3     1  UNL1        0.1422
     20 C         142.5678  141.9372  168.7526 C.3     1  UNL1        0.0322
     21 N         141.1469  144.5005  158.8582 N.am    1  UNL1       -0.2761
     22 C         140.2685  144.4418  160.0727 C.2     1  UNL1        0.2490
     23 O         139.6035  145.6877  160.5782 O.2     1  UNL1       -0.2699
     24 C         140.6875  146.0624  156.8334 C.3     1  UNL1        0.0233
     25 C         141.3602  145.8051  158.1493 C.3     1  UNL1        0.0938
     26 C         141.8119  143.2547  158.3526 C.3     1  UNL1        0.0942
     27 C         143.1859  142.8906  158.8319 C.3     1  UNL1        0.0311
     28 C         143.3771  141.7041  159.7296 C.3     1  UNL1        0.0868
     29 C         143.7132  141.9055  161.1775 C.2     1  UNL1        0.2226
     30 O         144.1205  143.2620  161.6712 O.2     1  UNL1       -0.2751
     31 N         143.6420  140.7503  162.1316 N.am    1  UNL1       -0.3020
     32 H         143.3747  139.8599  161.8075 H       1  UNL1        0.1495
     33 C         143.9781  140.9516  163.5796 C.3     1  UNL1        0.1213
     34 C         145.4120  141.0198  164.0142 C.3     1  UNL1        0.1583
     35 O         146.4024  141.8099  163.2111 O.3     1  UNL1       -0.3802
     36 H         146.5160  141.3967  162.3409 H       1  UNL1        0.2105
@<TRIPOS>BOND
     1    24    25    1
     2    25    21    1
     3    21    26    1
     4    26    27    1
     5    27    28    1
     6    28    29    1
     7    29    30    2
     8    29    31   am
     9    31    33    1
    10    33    34    1
    11    34    35    1
    12    21    22   am
    13    22    23    2
    14    22     1    1
    15     1     2   ar
    16     2     3   ar
    17     3     4   ar
    18     4     5   ar
    19     5     6   ar
    20     5     7   ar
    21     7     8   ar
    22     8     9   ar
    23     9    10    1
    24     8    11    1
    25    11    12    1
    26    12    13    1
    27    13    15    1
    28    15    16    1
    29    16    17    1
    30    17    18    1
    31    18    19    1
    32    19    20    1
    33    13    14    1
    34     6     1   ar
    35    14     7    1
    36     9     4   ar
    37    20    15    1
    38    31    32    1
    39    35    36    1
@<TRIPOS>MOLECULE
*****
 36 39 0 0 0
SMALL
GASTEIGER

@<TRIPOS>ATOM
      1 C         140.4319  140.5013  160.0710 C.ar    1  UNL1        0.0537
      2 C         140.0105  141.7400  159.3375 C.ar    1  UNL1        0.0060
      3 C         139.6950  142.9925  160.1001 C.ar    1  UNL1        0.0173
      4 C         139.8008  143.0064  161.5963 C.ar    1  UNL1        0.0594
      5 C         140.2222  141.7677  162.3298 C.ar    1  UNL1        0.0130
      6 C         140.5378  140.5152  161.5672 C.ar    1  UNL1        0.0057
      7 C         140.2372  142.0802  163.7969 C.ar    1  UNL1       -0.0091
      8 C         139.8251  143.5121  163.9700 C.ar    1  UNL1        0.0331
      9 N         139.5554  144.0844  162.6099 N.ar    1  UNL1       -0.3289
     10 C         139.1172  145.4884  162.3153 C.3     1  UNL1        0.1301
     11 C         139.7487  144.1097  165.3436 C.3     1  UNL1        0.0435
     12 C         140.0844  143.2755  166.5442 C.3     1  UNL1        0.0066
     13 C         140.4965  141.8437  166.3711 C.3     1  UNL1        0.0049
     14 C         140.5729  141.2461  164.9974 C.3     1  UNL1        0.0275
     15 C         140.8323  141.0095  167.5717 C.3     1  UNL1        0.0053
     16 C         139.8595  140.9059  168.7088 C.3     1  UNL1        0.0322
     17 C         140.1953  140.0717  169.9094 C.3     1  UNL1        0.1422
     18 O         141.5038  139.3410  169.9728 O.3     1  UNL1       -0.3538
     19 C         142.4765  139.4446  168.8357 C.3     1  UNL1        0.1422
     20 C         142.1408  140.2788  167.6351 C.3     1  UNL1        0.0322
     21 N         142.1734  138.8923  159.0088 N.am    1  UNL1       -0.2761
     22 C         140.7475  139.2488  159.3084 C.2     1  UNL1        0.2490
     23 O         139.6373  138.3528  158.8454 O.2     1  UNL1       -0.2699
     24 C         142.9883  137.7270  156.8343 C.3     1  UNL1        0.0233
     25 C         142.4890  137.6398  158.2461 C.3     1  UNL1        0.0938
     26 C         143.2837  139.7883  159.4718 C.3     1  UNL1        0.0942
     27 C         144.1679  139.3621  160.6060 C.3     1  UNL1        0.0311
     28 C         143.8616  138.1045  161.3641 C.3     1  UNL1        0.0868
     29 C         142.8528  138.1246  162.4739 C.2     1  UNL1        0.2226
     30 O         143.0840  138.9827  163.6822 O.2     1  UNL1       -0.2751
     31 N         141.6127  137.2865  162.3753 N.am    1  UNL1       -0.3020
     32 H         141.4609  136.7232  161.5822 H       1  UNL1        0.1495
     33 C         140.6037  137.3065  163.4851 C.3     1  UNL1        0.1213
     34 C         139.1570  137.5583  163.1791 C.3     1  UNL1        0.1583
     35 O         138.6882  137.6009  161.7549 O.3     1  UNL1       -0.3802
     36 H         139.0842  138.3646  161.3069 H       1  UNL1        0.2105
@<TRIPOS>BOND
     1    24    25    1
     2    25    21    1
     3    21    26    1
     4    26    27    1
     5    27    28    1
     6    28    29    1
     7    29    30    2
     8    29    31   am
     9    31    33    1
    10    33    34    1
    11    34    35    1
    12    21    22   am
    13    22    23    2
    14    22     1    1
    15     1     2   ar
    16     2     3   ar
    17     3     4   ar
    18     4     5   ar
    19     5     6   ar
    20     5     7   ar
    21     7     8   ar
    22     8     9   ar
    23     9    10    1
    24     8    11    1
    25    11    12    1
    26    12    13    1
    27    13    15    1
    28    15    16    1
    29    16    17    1
    30    17    18    1
    31    18    19    1
    32    19    20    1
    33    13    14    1
    34     6     1   ar
    35    14     7    1
    36     9     4   ar
    37    20    15    1
    38    31    32    1
    39    35    36    1
@<TRIPOS>MOLECULE
*****
 36 39 0 0 0
SMALL
GASTEIGER

@<TRIPOS>ATOM
      1 C         139.8097  142.9959  160.9838 C.ar    1  UNL1        0.0537
      2 C         139.3222  141.8875  160.0985 C.ar    1  UNL1        0.0060
      3 C         138.9350  140.5666  160.6947 C.ar    1  UNL1        0.0173
      4 C         139.0353  140.3541  162.1761 C.ar    1  UNL1        0.0594
      5 C         139.5228  141.4625  163.0614 C.ar    1  UNL1        0.0130
      6 C         139.9100  142.7834  162.4653 C.ar    1  UNL1        0.0057
      7 C         139.5159  140.9631  164.4759 C.ar    1  UNL1       -0.0091
      8 C         139.0241  139.5461  164.4647 C.ar    1  UNL1        0.0331
      9 N         138.7271  139.1697  163.0433 N.ar    1  UNL1       -0.3289
     10 C         138.2123  137.8420  162.5720 C.3     1  UNL1        0.1301
     11 C         138.9103  138.7815  165.7501 C.3     1  UNL1        0.0435
     12 C         139.2883  139.4340  167.0468 C.3     1  UNL1        0.0066
     13 C         139.7801  140.8510  167.0580 C.3     1  UNL1        0.0049
     14 C         139.8938  141.6156  165.7725 C.3     1  UNL1        0.0275
     15 C         140.1580  141.5035  168.3547 C.3     1  UNL1        0.0053
     16 C         140.3833  142.9854  168.4109 C.3     1  UNL1        0.0322
     17 C         140.7613  143.6379  169.7076 C.3     1  UNL1        0.1422
     18 O         140.9139  142.8085  170.9481 O.3     1  UNL1       -0.3538
     19 C         140.6886  141.3266  170.8919 C.3     1  UNL1        0.1422
     20 C         140.3107  140.6741  169.5952 C.3     1  UNL1        0.0322
     21 N         141.2226  144.3745  159.2948 N.am    1  UNL1       -0.2761
     22 C         140.1969  144.3167  160.3877 C.2     1  UNL1        0.2490
     23 O         139.5584  145.5798  160.8844 O.2     1  UNL1       -0.2699
     24 C         142.0608  145.7701  157.2699 C.3     1  UNL1        0.0233
     25 C         141.6098  145.6954  158.6986 C.3     1  UNL1        0.0938
     26 C         141.8612  143.1114  158.7979 C.3     1  UNL1        0.0942
     27 C         142.9973  142.4956  159.5594 C.3     1  UNL1        0.0311
     28 C         143.3842  141.0687  159.3057 C.3     1  UNL1        0.0868
     29 C         143.4804  140.1030  160.4494 C.2     1  UNL1        0.2226
     30 O         144.3753  138.9037  160.3451 O.2     1  UNL1       -0.2751
     31 N         142.6817  140.3366  161.6974 N.am    1  UNL1       -0.3020
     32 H         142.0944  141.1237  161.7658 H       1  UNL1        0.1495
     33 C         142.7779  139.3708  162.8412 C.3     1  UNL1        0.1213
     34 C         142.0114  138.0821  162.8011 C.3     1  UNL1        0.1583
     35 O         142.1841  137.1425  161.6448 O.3     1  UNL1       -0.3802
     36 H         141.8448  137.5583  160.8368 H       1  UNL1        0.2105
@<TRIPOS>BOND
     1    24    25    1
     2    25    21    1
     3    21    26    1
     4    26    27    1
     5    27    28    1
     6    28    29    1
     7    29    30    2
     8    29    31   am
     9    31    33    1
    10    33    34    1
    11    34    35    1
    12    21    22   am
    13    22    23    2
    14    22     1    1
    15     1     2   ar
    16     2     3   ar
    17     3     4   ar
    18     4     5   ar
    19     5     6   ar
    20     5     7   ar
    21     7     8   ar
    22     8     9   ar
    23     9    10    1
    24     8    11    1
    25    11    12    1
    26    12    13    1
    27    13    15    1
    28    15    16    1
    29    16    17    1
    30    17    18    1
    31    18    19    1
    32    19    20    1
    33    13    14    1
    34     6     1   ar
    35    14     7    1
    36     9     4   ar
    37    20    15    1
    38    31    32    1
    39    35    36    1
@<TRIPOS>MOLECULE
*****
 36 39 0 0 0
SMALL
GASTEIGER

@<TRIPOS>ATOM
      1 C         139.7437  142.9528  160.5429 C.ar    1  UNL1        0.0537
      2 C         139.1506  141.9355  159.6138 C.ar    1  UNL1        0.0060
      3 C         138.6498  140.6286  160.1536 C.ar    1  UNL1        0.0173
      4 C         138.7421  140.3391  161.6224 C.ar    1  UNL1        0.0594
      5 C         139.3353  141.3564  162.5515 C.ar    1  UNL1        0.0130
      6 C         139.8361  142.6632  162.0117 C.ar    1  UNL1        0.0057
      7 C         139.2943  140.7942  163.9416 C.ar    1  UNL1       -0.0091
      8 C         138.6759  139.4294  163.8716 C.ar    1  UNL1        0.0331
      9 N         138.3346  139.1482  162.4382 N.ar    1  UNL1       -0.3289
     10 C         137.6976  137.8958  161.9129 C.3     1  UNL1        0.1301
     11 C         138.5033  138.6191  165.1220 C.3     1  UNL1        0.0435
     12 C         138.9493  139.1736  166.4425 C.3     1  UNL1        0.0066
     13 C         139.5678  140.5383  166.5125 C.3     1  UNL1        0.0049
     14 C         139.7403  141.3486  165.2620 C.3     1  UNL1        0.0275
     15 C         140.0137  141.0928  167.8330 C.3     1  UNL1        0.0053
     16 C         139.8798  140.2660  169.0774 C.3     1  UNL1        0.0322
     17 C         140.3257  140.8205  170.3979 C.3     1  UNL1        0.1422
     18 O         140.9057  142.2018  170.4740 O.3     1  UNL1       -0.3538
     19 C         141.0396  143.0286  169.2296 C.3     1  UNL1        0.1422
     20 C         140.5937  142.4741  167.9091 C.3     1  UNL1        0.0322
     21 N         141.3980  144.2825  159.0446 N.am    1  UNL1       -0.2761
     22 C         140.2445  144.2596  160.0031 C.2     1  UNL1        0.2490
     23 O         139.5918  145.5436  160.4219 O.2     1  UNL1       -0.2699
     24 C         141.8439  145.8625  157.0309 C.3     1  UNL1        0.0233
     25 C         141.8988  145.5894  158.5048 C.3     1  UNL1        0.0938
     26 C         142.0508  142.9986  158.6257 C.3     1  UNL1        0.0942
     27 C         142.9303  142.2558  159.5873 C.3     1  UNL1        0.0311
     28 C         143.9023  143.0069  160.4484 C.3     1  UNL1        0.0868
     29 C         143.5246  143.3876  161.8492 C.2     1  UNL1        0.2226
     30 O         143.5730  142.3632  162.9438 O.2     1  UNL1       -0.2751
     31 N         143.0986  144.7928  162.1554 N.am    1  UNL1       -0.3020
     32 H         143.0669  145.4652  161.4370 H       1  UNL1        0.1495
     33 C         142.7209  145.1737  163.5563 C.3     1  UNL1        0.1213
     34 C         141.4044  144.7329  164.1242 C.3     1  UNL1        0.1583
     35 O         140.1895  145.5969  163.9592 O.3     1  UNL1       -0.3802
     36 H         140.3108  146.4231  164.4527 H       1  UNL1        0.2105
@<TRIPOS>BOND
     1    24    25    1
     2    25    21    1
     3    21    26    1
     4    26    27    1
     5    27    28    1
     6    28    29    1
     7    29    30    2
     8    29    31   am
     9    31    33    1
    10    33    34    1
    11    34    35    1
    12    21    22   am
    13    22    23    2
    14    22     1    1
    15     1     2   ar
    16     2     3   ar
    17     3     4   ar
    18     4     5   ar
    19     5     6   ar
    20     5     7   ar
    21     7     8   ar
    22     8     9   ar
    23     9    10    1
    24     8    11    1
    25    11    12    1
    26    12    13    1
    27    13    15    1
    28    15    16    1
    29    16    17    1
    30    17    18    1
    31    18    19    1
    32    19    20    1
    33    13    14    1
    34     6     1   ar
    35    14     7    1
    36     9     4   ar
    37    20    15    1
    38    31    32    1
    39    35    36    1
@<TRIPOS>MOLECULE
*****
 36 39 0 0 0
SMALL
GASTEIGER

@<TRIPOS>ATOM
      1 C         142.0801  140.9089  160.0448 C.ar    1  UNL1        0.0537
      2 C         141.5977  142.1075  159.2828 C.ar    1  UNL1        0.0060
      3 C         140.9398  143.2431  160.0092 C.ar    1  UNL1        0.0173
      4 C         140.7643  143.1801  161.4975 C.ar    1  UNL1        0.0594
      5 C         141.2467  141.9815  162.2595 C.ar    1  UNL1        0.0130
      6 C         141.9046  140.8459  161.5331 C.ar    1  UNL1        0.0057
      7 C         140.9381  142.2000  163.7111 C.ar    1  UNL1       -0.0091
      8 C         140.2650  143.5336  163.8462 C.ar    1  UNL1        0.0331
      9 N         140.1576  144.1393  162.4781 N.ar    1  UNL1       -0.3289
     10 C         139.5501  145.4706  162.1486 C.3     1  UNL1        0.1301
     11 C         139.8369  144.0242  165.1974 C.3     1  UNL1        0.0435
     12 C         140.0819  143.1811  166.4137 C.3     1  UNL1        0.0066
     13 C         140.7550  141.8474  166.2785 C.3     1  UNL1        0.0049
     14 C         141.1831  141.3569  164.9272 C.3     1  UNL1        0.0275
     15 C         140.9999  141.0043  167.4947 C.3     1  UNL1        0.0053
     16 C         142.2769  140.2281  167.6244 C.3     1  UNL1        0.0322
     17 C         142.5219  139.3849  168.8407 C.3     1  UNL1        0.1422
     18 O         141.4898  139.3180  169.9272 O.3     1  UNL1       -0.3538
     19 C         140.2128  140.0943  169.7975 C.3     1  UNL1        0.1422
     20 C         139.9679  140.9374  168.5813 C.3     1  UNL1        0.0322
     21 N         141.9075  138.8106  158.5225 N.am    1  UNL1       -0.2761
     22 C         142.7380  139.7733  159.3184 C.2     1  UNL1        0.2490
     23 O         144.2263  139.6005  159.3879 O.2     1  UNL1       -0.2699
     24 C         143.1354  137.8912  156.4255 C.3     1  UNL1        0.0233
     25 C         142.5654  137.6750  157.7962 C.3     1  UNL1        0.0938
     26 C         140.4191  138.9834  158.4530 C.3     1  UNL1        0.0942
     27 C         139.5278  138.1777  159.3510 C.3     1  UNL1        0.0311
     28 C         138.9957  138.7812  160.6171 C.3     1  UNL1        0.0868
     29 C         139.4155  138.2271  161.9462 C.2     1  UNL1        0.2226
     30 O         140.6785  137.4258  162.0597 O.2     1  UNL1       -0.2751
     31 N         138.5724  138.4742  163.1619 N.am    1  UNL1       -0.3020
     32 H         137.7434  139.0000  163.0874 H       1  UNL1        0.1495
     33 C         138.9922  137.9200  164.4911 C.3     1  UNL1        0.1213
     34 C         138.5929  138.6208  165.7558 C.3     1  UNL1        0.1583
     35 O         137.8022  139.8938  165.6902 O.3     1  UNL1       -0.3802
     36 H         138.3421  140.5891  165.2828 H       1  UNL1        0.2105
@<TRIPOS>BOND
     1    24    25    1
     2    25    21    1
     3    21    26    1
     4    26    27    1
     5    27    28    1
     6    28    29    1
     7    29    30    2
     8    29    31   am
     9    31    33    1
    10    33    34    1
    11    34    35    1
    12    21    22   am
    13    22    23    2
    14    22     1    1
    15     1     2   ar
    16     2     3   ar
    17     3     4   ar
    18     4     5   ar
    19     5     6   ar
    20     5     7   ar
    21     7     8   ar
    22     8     9   ar
    23     9    10    1
    24     8    11    1
    25    11    12    1
    26    12    13    1
    27    13    15    1
    28    15    16    1
    29    16    17    1
    30    17    18    1
    31    18    19    1
    32    19    20    1
    33    13    14    1
    34     6     1   ar
    35    14     7    1
    36     9     4   ar
    37    20    15    1
    38    31    32    1
    39    35    36    1
@<TRIPOS>MOLECULE
*****
 36 39 0 0 0
SMALL
GASTEIGER

@<TRIPOS>ATOM
      1 C         142.6435  139.9592  159.5501 C.ar    1  UNL1        0.0537
      2 C         143.5782  141.0602  159.1450 C.ar    1  UNL1        0.0060
      3 C         143.8861  142.1729  160.1027 C.ar    1  UNL1        0.0173
      4 C         143.2593  142.1846  161.4653 C.ar    1  UNL1        0.0594
      5 C         142.3246  141.0837  161.8704 C.ar    1  UNL1        0.0130
      6 C         142.0167  139.9709  160.9128 C.ar    1  UNL1        0.0057
      7 C         141.8606  141.3608  163.2697 C.ar    1  UNL1       -0.0091
      8 C         142.5086  142.6331  163.7294 C.ar    1  UNL1        0.0331
      9 N         143.3730  143.1423  162.6143 N.ar    1  UNL1       -0.3289
     10 C         144.2051  144.3900  162.6429 C.3     1  UNL1        0.1301
     11 C         142.2278  143.1637  165.1040 C.3     1  UNL1        0.0435
     12 C         141.2990  142.4220  166.0189 C.3     1  UNL1        0.0066
     13 C         140.6510  141.1497  165.5593 C.3     1  UNL1        0.0049
     14 C         140.9318  140.6191  164.1846 C.3     1  UNL1        0.0275
     15 C         139.7222  140.4079  166.4742 C.3     1  UNL1        0.0053
     16 C         139.8272  140.5915  167.9592 C.3     1  UNL1        0.0322
     17 C         138.8984  139.8497  168.8742 C.3     1  UNL1        0.1422
     18 O         137.8645  138.9243  168.3040 O.3     1  UNL1       -0.3538
     19 C         137.7595  138.7408  166.8190 C.3     1  UNL1        0.1422
     20 C         138.6884  139.4825  165.9041 C.3     1  UNL1        0.0322
     21 N         141.1076  138.9143  157.7337 N.am    1  UNL1       -0.2761
     22 C         142.3355  138.8465  158.5925 C.2     1  UNL1        0.2490
     23 O         143.2555  137.6659  158.4936 O.2     1  UNL1       -0.2699
     24 C         141.4189  137.7950  155.4099 C.3     1  UNL1        0.0233
     25 C         140.7997  137.8016  156.7761 C.3     1  UNL1        0.0938
     26 C         140.1875  140.0949  157.8326 C.3     1  UNL1        0.0942
     27 C         138.8216  139.9332  158.4309 C.3     1  UNL1        0.0311
     28 C         138.1434  141.1036  159.0793 C.3     1  UNL1        0.0868
     29 C         138.3656  141.3870  160.5354 C.2     1  UNL1        0.2226
     30 O         138.7421  140.2734  161.4672 O.2     1  UNL1       -0.2751
     31 N         138.2113  142.7838  161.0597 N.am    1  UNL1       -0.3020
     32 H         137.9642  143.5147  160.4481 H       1  UNL1        0.1495
     33 C         138.4335  143.0672  162.5159 C.3     1  UNL1        0.1213
     34 C         137.5949  142.3774  163.5507 C.3     1  UNL1        0.1583
     35 O         136.5399  141.3978  163.1297 O.3     1  UNL1       -0.3802
     36 H         135.8435  141.8630  162.6402 H       1  UNL1        0.2105
@<TRIPOS>BOND
     1    24    25    1
     2    25    21    1
     3    21    26    1
     4    26    27    1
     5    27    28    1
     6    28    29    1
     7    29    30    2
     8    29    31   am
     9    31    33    1
    10    33    34    1
    11    34    35    1
    12    21    22   am
    13    22    23    2
    14    22     1    1
    15     1     2   ar
    16     2     3   ar
    17     3     4   ar
    18     4     5   ar
    19     5     6   ar
    20     5     7   ar
    21     7     8   ar
    22     8     9   ar
    23     9    10    1
    24     8    11    1
    25    11    12    1
    26    12    13    1
    27    13    15    1
    28    15    16    1
    29    16    17    1
    30    17    18    1
    31    18    19    1
    32    19    20    1
    33    13    14    1
    34     6     1   ar
    35    14     7    1
    36     9     4   ar
    37    20    15    1
    38    31    32    1
    39    35    36    1
@<TRIPOS>MOLECULE
*****
 36 39 0 0 0
SMALL
GASTEIGER

@<TRIPOS>ATOM
      1 C         140.1650  140.8914  166.1492 C.ar    1  UNL1        0.0537
      2 C         139.3535  139.6398  166.3068 C.ar    1  UNL1        0.0060
      3 C         138.7723  138.9658  165.0993 C.ar    1  UNL1        0.0173
      4 C         139.0027  139.5433  163.7343 C.ar    1  UNL1        0.0594
      5 C         139.8142  140.7949  163.5767 C.ar    1  UNL1        0.0130
      6 C         140.3954  141.4689  164.7842 C.ar    1  UNL1        0.0057
      7 C         139.8724  141.1287  162.1154 C.ar    1  UNL1       -0.0091
      8 C         139.0968  140.0834  161.3700 C.ar    1  UNL1        0.0331
      9 N         138.5593  139.1036  162.3705 N.ar    1  UNL1       -0.3289
     10 C         137.7249  137.8960  162.0615 C.3     1  UNL1        0.1301
     11 C         138.9802  140.1588  159.8765 C.3     1  UNL1        0.0435
     12 C         139.6392  141.2796  159.1284 C.3     1  UNL1        0.0066
     13 C         140.4148  142.3249  159.8739 C.3     1  UNL1        0.0049
     14 C         140.5314  142.2494  161.3674 C.3     1  UNL1        0.0275
     15 C         141.0739  143.4456  159.1258 C.3     1  UNL1        0.0053
     16 C         142.3019  143.1803  158.3063 C.3     1  UNL1        0.0322
     17 C         142.9609  144.3011  157.5582 C.3     1  UNL1        0.1422
     18 O         142.3919  145.6872  157.6297 O.3     1  UNL1       -0.3538
     19 C         141.1639  145.9525  158.4492 C.3     1  UNL1        0.1422
     20 C         140.5048  144.8317  159.1973 C.3     1  UNL1        0.0322
     21 N         141.8232  140.8859  168.1493 N.am    1  UNL1       -0.2761
     22 C         140.7462  141.5654  167.3566 C.2     1  UNL1        0.2490
     23 O         140.2504  142.9190  167.7714 O.2     1  UNL1       -0.2699
     24 C         143.7000  142.3080  169.2473 C.3     1  UNL1        0.0233
     25 C         142.4043  141.5600  169.3567 C.3     1  UNL1        0.0938
     26 C         142.3190  139.5323  167.7346 C.3     1  UNL1        0.0942
     27 C         143.0929  139.3754  166.4593 C.3     1  UNL1        0.0311
     28 C         142.7113  138.3079  165.4769 C.3     1  UNL1        0.0868
     29 C         142.7044  138.6088  164.0074 C.2     1  UNL1        0.2226
     30 O         143.2720  139.9028  163.5041 O.2     1  UNL1       -0.2751
     31 N         142.1299  137.6156  163.0413 N.am    1  UNL1       -0.3020
     32 H         141.7574  136.7663  163.3716 H       1  UNL1        0.1495
     33 C         142.1230  137.9165  161.5717 C.3     1  UNL1        0.1213
     34 C         143.3842  137.7775  160.7718 C.3     1  UNL1        0.1583
     35 O         144.6557  138.4050  161.2612 O.3     1  UNL1       -0.3802
     36 H         144.5637  139.3706  161.2528 H       1  UNL1        0.2105
@<TRIPOS>BOND
     1    24    25    1
     2    25    21    1
     3    21    26    1
     4    26    27    1
     5    27    28    1
     6    28    29    1
     7    29    30    2
     8    29    31   am
     9    31    33    1
    10    33    34    1
    11    34    35    1
    12    21    22   am
    13    22    23    2
    14    22     1    1
    15     1     2   ar
    16     2     3   ar
    17     3     4   ar
    18     4     5   ar
    19     5     6   ar
    20     5     7   ar
    21     7     8   ar
    22     8     9   ar
    23     9    10    1
    24     8    11    1
    25    11    12    1
    26    12    13    1
    27    13    15    1
    28    15    16    1
    29    16    17    1
    30    17    18    1
    31    18    19    1
    32    19    20    1
    33    13    14    1
    34     6     1   ar
    35    14     7    1
    36     9     4   ar
    37    20    15    1
    38    31    32    1
    39    35    36    1
@<TRIPOS>MOLECULE
*****
 36 39 0 0 0
SMALL
GASTEIGER

@<TRIPOS>ATOM
      1 C         143.3443  142.9877  158.9889 C.ar    1  UNL1        0.0537
      2 C         142.5691  144.1521  158.4476 C.ar    1  UNL1        0.0060
      3 C         141.6221  144.9014  159.3374 C.ar    1  UNL1        0.0173
      4 C         141.4502  144.4861  160.7684 C.ar    1  UNL1        0.0594
      5 C         142.2254  143.3216  161.3097 C.ar    1  UNL1        0.0130
      6 C         143.1724  142.5724  160.4199 C.ar    1  UNL1        0.0057
      7 C         141.8505  143.1451  162.7514 C.ar    1  UNL1       -0.0091
      8 C         140.8437  144.2005  163.1011 C.ar    1  UNL1        0.0331
      9 N         140.5962  145.0293  161.8755 N.ar    1  UNL1       -0.3289
     10 C         139.6594  146.1964  161.7748 C.3     1  UNL1        0.1301
     11 C         140.2822  144.2706  164.4902 C.3     1  UNL1        0.0435
     12 C         140.7276  143.2852  165.5297 C.3     1  UNL1        0.0066
     13 C         141.7344  142.2297  165.1801 C.3     1  UNL1        0.0049
     14 C         142.2959  142.1597  163.7909 C.3     1  UNL1        0.0275
     15 C         142.1799  141.2443  166.2196 C.3     1  UNL1        0.0053
     16 C         142.6164  139.8687  165.8108 C.3     1  UNL1        0.0322
     17 C         143.0618  138.8833  166.8503 C.3     1  UNL1        0.1422
     18 O         143.0707  139.2735  168.2987 O.3     1  UNL1       -0.3538
     19 C         142.6341  140.6491  168.7075 C.3     1  UNL1        0.1422
     20 C         142.1887  141.6346  167.6680 C.3     1  UNL1        0.0322
     21 N         143.8035  141.0630  157.3052 N.am    1  UNL1       -0.2761
     22 C         144.2914  142.2384  158.0991 C.2     1  UNL1        0.2490
     23 O         145.7263  142.6646  158.0032 O.2     1  UNL1       -0.2699
     24 C         145.0212  140.8061  155.0246 C.3     1  UNL1        0.0233
     25 C         144.7506  140.3137  156.4154 C.3     1  UNL1        0.0938
     26 C         142.3685  140.6367  157.4011 C.3     1  UNL1        0.0942
     27 C         142.0184  139.3146  158.0171 C.3     1  UNL1        0.0311
     28 C         141.9285  139.1824  159.5086 C.3     1  UNL1        0.0868
     29 C         140.6656  138.6788  160.1421 C.2     1  UNL1        0.2226
     30 O         139.4414  138.4599  159.3035 O.2     1  UNL1       -0.2751
     31 N         140.6269  138.3940  161.6143 N.am    1  UNL1       -0.3020
     32 H         141.4304  138.5377  162.1647 H       1  UNL1        0.1495
     33 C         139.3640  137.8903  162.2479 C.3     1  UNL1        0.1213
     34 C         138.2113  138.8244  162.4684 C.3     1  UNL1        0.1583
     35 O         137.2056  139.0451  161.3776 O.3     1  UNL1       -0.3802
     36 H         137.6332  139.4889  160.6285 H       1  UNL1        0.2105
@<TRIPOS>BOND
     1    24    25    1
     2    25    21    1
     3    21    26    1
     4    26    27    1
     5    27    28    1
     6    28    29    1
     7    29    30    2
     8    29    31   am
     9    31    33    1
    10    33    34    1
    11    34    35    1
    12    21    22   am
    13    22    23    2
    14    22     1    1
    15     1     2   ar
    16     2     3   ar
    17     3     4   ar
    18     4     5   ar
    19     5     6   ar
    20     5     7   ar
    21     7     8   ar
    22     8     9   ar
    23     9    10    1
    24     8    11    1
    25    11    12    1
    26    12    13    1
    27    13    15    1
    28    15    16    1
    29    16    17    1
    30    17    18    1
    31    18    19    1
    32    19    20    1
    33    13    14    1
    34     6     1   ar
    35    14     7    1
    36     9     4   ar
    37    20    15    1
    38    31    32    1
    39    35    36    1
@<TRIPOS>MOLECULE
*****
 36 39 0 0 0
SMALL
GASTEIGER

@<TRIPOS>ATOM
      1 C         141.0906  142.0611  159.8896 C.ar    1  UNL1        0.0537
      2 C         140.2160  141.1279  159.1059 C.ar    1  UNL1        0.0060
      3 C         139.4103  140.0808  159.8163 C.ar    1  UNL1        0.0173
      4 C         139.4793  139.9670  161.3104 C.ar    1  UNL1        0.0594
      5 C         140.3540  140.9002  162.0940 C.ar    1  UNL1        0.0130
      6 C         141.1596  141.9472  161.3836 C.ar    1  UNL1        0.0057
      7 C         140.2198  140.5511  163.5467 C.ar    1  UNL1       -0.0091
      8 C         139.2622  139.4022  163.6608 C.ar    1  UNL1        0.0331
      9 N         138.8046  139.0412  162.2787 N.ar    1  UNL1       -0.3289
     10 C         137.8414  137.9466  161.9267 C.3     1  UNL1        0.1301
     11 C         138.9307  138.8332  165.0084 C.3     1  UNL1        0.0435
     12 C         139.5567  139.4131  166.2421 C.3     1  UNL1        0.0066
     13 C         140.5143  140.5620  166.1280 C.3     1  UNL1        0.0049
     14 C         140.8458  141.1310  164.7802 C.3     1  UNL1        0.0275
     15 C         141.1404  141.1420  167.3616 C.3     1  UNL1        0.0053
     16 C         142.3070  140.4531  168.0053 C.3     1  UNL1        0.0322
     17 C         142.9330  141.0330  169.2389 C.3     1  UNL1        0.1422
     18 O         142.3924  142.3019  169.8288 O.3     1  UNL1       -0.3538
     19 C         141.2258  142.9907  169.1850 C.3     1  UNL1        0.1422
     20 C         140.5997  142.4108  167.9514 C.3     1  UNL1        0.0322
     21 N         141.3939  144.5196  159.1063 N.am    1  UNL1       -0.2761
     22 C         141.8962  143.1081  159.1792 C.2     1  UNL1        0.2490
     23 O         143.2041  142.7437  158.5416 O.2     1  UNL1       -0.2699
     24 C         141.9750  145.8227  156.9350 C.3     1  UNL1        0.0233
     25 C         142.1996  145.5666  158.3959 C.3     1  UNL1        0.0938
     26 C         140.0859  144.8841  159.7438 C.3     1  UNL1        0.0942
     27 C         140.0231  146.0050  160.7385 C.3     1  UNL1        0.0311
     28 C         139.9364  145.7023  162.2052 C.3     1  UNL1        0.0868
     29 C         141.1405  145.1881  162.9372 C.2     1  UNL1        0.2226
     30 O         140.9900  144.6020  164.3098 O.2     1  UNL1       -0.2751
     31 N         142.4949  145.2601  162.2968 N.am    1  UNL1       -0.3020
     32 H         142.5936  145.6448  161.3959 H       1  UNL1        0.1495
     33 C         143.6990  144.7460  163.0288 C.3     1  UNL1        0.1213
     34 C         144.4396  143.5502  162.5077 C.3     1  UNL1        0.1583
     35 O         144.2400  142.2076  163.1462 O.3     1  UNL1       -0.3802
     36 H         144.5816  142.2273  164.0538 H       1  UNL1        0.2105
@<TRIPOS>BOND
     1    24    25    1
     2    25    21    1
     3    21    26    1
     4    26    27    1
     5    27    28    1
     6    28    29    1
     7    29    30    2
     8    29    31   am
     9    31    33    1
    10    33    34    1
    11    34    35    1
    12    21    22   am
    13    22    23    2
    14    22     1    1
    15     1     2   ar
    16     2     3   ar
    17     3     4   ar
    18     4     5   ar
    19     5     6   ar
    20     5     7   ar
    21     7     8   ar
    22     8     9   ar
    23     9    10    1
    24     8    11    1
    25    11    12    1
    26    12    13    1
    27    13    15    1
    28    15    16    1
    29    16    17    1
    30    17    18    1
    31    18    19    1
    32    19    20    1
    33    13    14    1
    34     6     1   ar
    35    14     7    1
    36     9     4   ar
    37    20    15    1
    38    31    32    1
    39    35    36    1
