@<TRIPOS>MOLECULE
*****
 30 34 0 0 0
SMALL
GASTEIGER

@<TRIPOS>ATOM
      1 C         140.3604  145.9004  157.7366 C.3     1  UNL1        0.0950
      2 C         140.8861  145.1417  158.9190 C.ar    1  UNL1        0.2063
      3 N         142.2371  144.4985  159.0242 N.ar    1  UNL1       -0.2072
      4 C         142.3390  143.8522  160.3740 C.ar    1  UNL1        0.1744
      5 C         143.4382  143.0733  161.0334 C.ar    1  UNL1        0.2816
      6 O         144.7263  142.8295  160.3043 O.2     1  UNL1       -0.2652
      7 N         143.2495  142.5381  162.4219 N.ar    1  UNL1       -0.2951
      8 C         141.9615  142.7819  163.1510 C.ar    1  UNL1        0.0773
      9 C         141.7727  142.2468  164.5395 C.ar    1  UNL1        0.0890
     10 CL        142.8719  141.4679  165.1989 Cl      1  UNL1       -0.0794
     11 C         140.4847  142.4906  165.2686 C.ar    1  UNL1        0.0878
     12 C         139.3854  143.2696  164.6092 C.ar    1  UNL1        0.1543
     13 F         138.0974  143.5134  165.3383 F       1  UNL1       -0.2028
     14 C         139.5742  143.8047  163.2206 C.ar    1  UNL1        0.0355
     15 C         140.8622  143.5609  162.4915 C.ar    1  UNL1        0.0553
     16 C         141.0510  144.0961  161.1030 C.ar    1  UNL1        0.1705
     17 O         140.1530  144.8930  160.2038 O.2     1  UNL1       -0.4382
     18 N         140.2959  141.9555  166.6571 N.pl3   1  UNL1       -0.3050
     19 C         139.8763  140.5605  167.0149 C.3     1  UNL1        0.0910
     20 C         139.8146  140.4642  168.5106 C.3     1  UNL1        0.0244
     21 C         140.1961  141.7998  169.0772 C.3     1  UNL1        0.0357
     22 C         140.4935  142.7214  167.9317 C.3     1  UNL1        0.0922
     23 C         140.2676  142.1518  170.5334 C.3     1  UNL1        0.0525
     24 C         141.2387  141.4424  171.4298 C.3     1  UNL1        0.0169
     25 N         139.3679  143.2134  171.0934 N.3     1  UNL1       -0.3221
     26 H         139.5499  143.3217  172.0912 H       1  UNL1        0.1188
     27 H         138.3945  142.9430  170.9528 H       1  UNL1        0.1188
     28 C         144.3487  141.7592  163.0814 C.3     1  UNL1        0.0886
     29 C         144.9466  140.4445  163.4867 C.3     1  UNL1        0.0246
     30 C         145.6548  141.7246  163.8181 C.3     1  UNL1        0.0246
@<TRIPOS>BOND
     1     1     2    1
     2     2     3   ar
     3     3     4   ar
     4     4     5   ar
     5     5     6    2
     6     5     7   ar
     7     7    28    1
     8    28    29    1
     9    29    30    1
    10     7     8   ar
    11     8     9   ar
    12     9    10    1
    13     9    11   ar
    14    11    18    1
    15    18    19    1
    16    19    20    1
    17    21    20    1
    18    21    23    1
    19    23    24    1
    20    23    25    1
    21    21    22    1
    22    11    12   ar
    23    12    13    1
    24    12    14   ar
    25    14    15   ar
    26    15    16   ar
    27    16    17   ar
    28    17     2   ar
    29    16     4   ar
    30    30    28    1
    31    15     8   ar
    32    22    18    1
    33    25    26    1
    34    25    27    1
@<TRIPOS>MOLECULE
*****
 30 34 0 0 0
SMALL
GASTEIGER

@<TRIPOS>ATOM
      1 C         139.9776  138.0017  157.3498 C.3     1  UNL1        0.0950
      2 C         139.8588  138.8094  158.6081 C.ar    1  UNL1        0.2063
      3 N         139.2508  140.1757  158.7248 N.ar    1  UNL1       -0.2072
      4 C         139.3434  140.6034  160.1595 C.ar    1  UNL1        0.1744
      5 C         138.9079  141.8539  160.8642 C.ar    1  UNL1        0.2816
      6 O         138.2425  142.9558  160.0941 O.2     1  UNL1       -0.2652
      7 N         139.1378  142.0025  162.3391 N.ar    1  UNL1       -0.2951
      8 C         139.8031  140.9005  163.1092 C.ar    1  UNL1        0.0773
      9 C         140.0330  141.0491  164.5839 C.ar    1  UNL1        0.0890
     10 CL        139.5975  142.2995  165.2886 Cl      1  UNL1       -0.0794
     11 C         140.6984  139.9472  165.3541 C.ar    1  UNL1        0.0878
     12 C         141.1339  138.6967  164.6494 C.ar    1  UNL1        0.1543
     13 F         141.7993  137.5948  165.4195 F       1  UNL1       -0.2028
     14 C         140.9041  138.5481  163.1745 C.ar    1  UNL1        0.0355
     15 C         140.2387  139.6500  162.4044 C.ar    1  UNL1        0.0553
     16 C         140.0088  139.5015  160.9296 C.ar    1  UNL1        0.1705
     17 O         140.3273  138.3928  159.9708 O.2     1  UNL1       -0.4382
     18 N         140.9283  140.0957  166.8288 N.pl3   1  UNL1       -0.3050
     19 C         139.9067  139.8823  167.9063 C.3     1  UNL1        0.0910
     20 C         140.5672  140.1385  169.2286 C.3     1  UNL1        0.0244
     21 C         141.9969  140.5102  168.9683 C.3     1  UNL1        0.0357
     22 C         142.2201  140.4838  167.4852 C.3     1  UNL1        0.0922
     23 C         143.0232  140.8489  170.0083 C.3     1  UNL1        0.0525
     24 C         143.7236  142.1747  169.9671 C.3     1  UNL1        0.0169
     25 N         143.3492  139.8618  171.0897 N.3     1  UNL1       -0.3221
     26 H         144.0622  140.2542  171.7046 H       1  UNL1        0.1188
     27 H         143.6989  139.0006  170.6698 H       1  UNL1        0.1188
     28 C         138.7022  143.2529  163.0437 C.3     1  UNL1        0.0886
     29 C         138.9624  144.6737  163.4485 C.3     1  UNL1        0.0246
     30 C         137.6878  143.9981  163.8596 C.3     1  UNL1        0.0246
@<TRIPOS>BOND
     1     1     2    1
     2     2     3   ar
     3     3     4   ar
     4     4     5   ar
     5     5     6    2
     6     5     7   ar
     7     7    28    1
     8    28    29    1
     9    29    30    1
    10     7     8   ar
    11     8     9   ar
    12     9    10    1
    13     9    11   ar
    14    11    18    1
    15    18    19    1
    16    19    20    1
    17    21    20    1
    18    21    23    1
    19    23    24    1
    20    23    25    1
    21    21    22    1
    22    11    12   ar
    23    12    13    1
    24    12    14   ar
    25    14    15   ar
    26    15    16   ar
    27    16    17   ar
    28    17     2   ar
    29    16     4   ar
    30    30    28    1
    31    15     8   ar
    32    22    18    1
    33    25    26    1
    34    25    27    1
@<TRIPOS>MOLECULE
*****
 30 34 0 0 0
SMALL
GASTEIGER

@<TRIPOS>ATOM
      1 C         140.0062  140.8647  170.7116 C.3     1  UNL1        0.0950
      2 C         139.9502  140.7449  169.2175 C.ar    1  UNL1        0.2063
      3 N         139.2270  139.6821  168.4446 N.ar    1  UNL1       -0.2072
      4 C         139.4374  139.9472  166.9833 C.ar    1  UNL1        0.1744
      5 C         138.9622  139.2301  165.7545 C.ar    1  UNL1        0.2816
      6 O         138.1089  138.0034  165.8849 O.2     1  UNL1       -0.2652
      7 N         139.3403  139.7398  164.3953 N.ar    1  UNL1       -0.2951
      8 C         140.1936  140.9665  164.2650 C.ar    1  UNL1        0.0773
      9 C         140.5718  141.4762  162.9059 C.ar    1  UNL1        0.0890
     10 CL        140.0966  140.7591  161.6771 Cl      1  UNL1       -0.0794
     11 C         141.4251  142.7029  162.7756 C.ar    1  UNL1        0.0878
     12 C         141.9003  143.4200  164.0044 C.ar    1  UNL1        0.1543
     13 F         142.7536  144.6467  163.8740 F       1  UNL1       -0.2028
     14 C         141.5221  142.9103  165.3636 C.ar    1  UNL1        0.0355
     15 C         140.6688  141.6836  165.4939 C.ar    1  UNL1        0.0553
     16 C         140.2907  141.1740  166.8530 C.ar    1  UNL1        0.1705
     17 O         140.6076  141.6669  168.2338 O.2     1  UNL1       -0.4382
     18 N         141.8032  143.2125  161.4165 N.pl3   1  UNL1       -0.3050
     19 C         142.9310  142.7058  160.5672 C.3     1  UNL1        0.0910
     20 C         142.9448  143.4985  159.2937 C.3     1  UNL1        0.0244
     21 C         141.8255  144.4952  159.3561 C.3     1  UNL1        0.0357
     22 C         141.1200  144.3185  160.6680 C.3     1  UNL1        0.0922
     23 C         141.4735  145.4933  158.2932 C.3     1  UNL1        0.0525
     24 C         140.0361  145.7408  157.9432 C.3     1  UNL1        0.0169
     25 N         142.5589  146.2440  157.5803 N.3     1  UNL1       -0.3221
     26 H         142.1426  146.8752  156.8957 H       1  UNL1        0.1188
     27 H         143.1730  145.5832  157.1041 H       1  UNL1        0.1188
     28 C         138.8652  139.0227  163.1666 C.3     1  UNL1        0.0886
     29 C         137.8318  138.8210  162.0981 C.3     1  UNL1        0.0246
     30 C         139.0754  137.9824  162.1066 C.3     1  UNL1        0.0246
@<TRIPOS>BOND
     1     1     2    1
     2     2     3   ar
     3     3     4   ar
     4     4     5   ar
     5     5     6    2
     6     5     7   ar
     7     7    28    1
     8    28    29    1
     9    29    30    1
    10     7     8   ar
    11     8     9   ar
    12     9    10    1
    13     9    11   ar
    14    11    18    1
    15    18    19    1
    16    19    20    1
    17    21    20    1
    18    21    23    1
    19    23    24    1
    20    23    25    1
    21    21    22    1
    22    11    12   ar
    23    12    13    1
    24    12    14   ar
    25    14    15   ar
    26    15    16   ar
    27    16    17   ar
    28    17     2   ar
    29    16     4   ar
    30    30    28    1
    31    15     8   ar
    32    22    18    1
    33    25    26    1
    34    25    27    1
@<TRIPOS>MOLECULE
*****
 30 34 0 0 0
SMALL
GASTEIGER

@<TRIPOS>ATOM
      1 C         143.7625  142.8267  157.1253 C.3     1  UNL1        0.0950
      2 C         143.1128  142.8678  158.4767 C.ar    1  UNL1        0.2063
      3 N         141.8421  143.5858  158.8226 N.ar    1  UNL1       -0.2072
      4 C         141.5637  143.3599  160.2791 C.ar    1  UNL1        0.1744
      5 C         140.4517  143.8244  161.1723 C.ar    1  UNL1        0.2816
      6 O         139.3530  144.6820  160.6180 O.2     1  UNL1       -0.2652
      7 N         140.4384  143.4312  162.6198 N.ar    1  UNL1       -0.2951
      8 C         141.5371  142.5735  163.1741 C.ar    1  UNL1        0.0773
      9 C         141.5239  142.1803  164.6216 C.ar    1  UNL1        0.0890
     10 CL        140.4119  142.6447  165.5147 Cl      1  UNL1       -0.0794
     11 C         142.6226  141.3226  165.1759 C.ar    1  UNL1        0.0878
     12 C         143.7346  140.8582  164.2827 C.ar    1  UNL1        0.1543
     13 F         144.8333  140.0005  164.8370 F       1  UNL1       -0.2028
     14 C         143.7479  141.2514  162.8352 C.ar    1  UNL1        0.0355
     15 C         142.6492  142.1090  162.2809 C.ar    1  UNL1        0.0553
     16 C         142.6624  142.5023  160.8334 C.ar    1  UNL1        0.1705
     17 O         143.6198  142.1981  159.7195 O.2     1  UNL1       -0.4382
     18 N         142.6093  140.9294  166.6233 N.pl3   1  UNL1       -0.3050
     19 C         142.5506  139.5283  167.1559 C.3     1  UNL1        0.0910
     20 C         142.5574  139.6012  168.6542 C.3     1  UNL1        0.0244
     21 C         142.6204  141.0474  169.0476 C.3     1  UNL1        0.0357
     22 C         142.6525  141.8682  167.7925 C.3     1  UNL1        0.0922
     23 C         142.6467  141.5793  170.4498 C.3     1  UNL1        0.0525
     24 C         142.9604  143.0250  170.6978 C.3     1  UNL1        0.0169
     25 N         142.3593  140.6655  171.6040 N.3     1  UNL1       -0.3221
     26 H         142.4200  141.1904  172.4765 H       1  UNL1        0.1188
     27 H         143.0413  139.9072  171.6153 H       1  UNL1        0.1188
     28 C         139.3265  143.8956  163.5130 C.3     1  UNL1        0.0886
     29 C         137.9139  143.7694  164.0016 C.3     1  UNL1        0.0246
     30 C         138.8130  144.8263  164.5713 C.3     1  UNL1        0.0246
@<TRIPOS>BOND
     1     1     2    1
     2     2     3   ar
     3     3     4   ar
     4     4     5   ar
     5     5     6    2
     6     5     7   ar
     7     7    28    1
     8    28    29    1
     9    29    30    1
    10     7     8   ar
    11     8     9   ar
    12     9    10    1
    13     9    11   ar
    14    11    18    1
    15    18    19    1
    16    19    20    1
    17    21    20    1
    18    21    23    1
    19    23    24    1
    20    23    25    1
    21    21    22    1
    22    11    12   ar
    23    12    13    1
    24    12    14   ar
    25    14    15   ar
    26    15    16   ar
    27    16    17   ar
    28    17     2   ar
    29    16     4   ar
    30    30    28    1
    31    15     8   ar
    32    22    18    1
    33    25    26    1
    34    25    27    1
@<TRIPOS>MOLECULE
*****
 30 34 0 0 0
SMALL
GASTEIGER

@<TRIPOS>ATOM
      1 C         140.0374  143.0145  170.6443 C.3     1  UNL1        0.0950
      2 C         140.4091  142.6690  169.2327 C.ar    1  UNL1        0.2063
      3 N         141.2676  141.5162  168.8040 N.ar    1  UNL1       -0.2072
      4 C         141.3767  141.5504  167.3084 C.ar    1  UNL1        0.1744
      5 C         142.0942  140.6642  166.3338 C.ar    1  UNL1        0.2816
      6 O         142.8854  139.4902  166.8295 O.2     1  UNL1       -0.2652
      7 N         142.0206  140.9521  164.8635 N.ar    1  UNL1       -0.2951
      8 C         141.2294  142.1261  164.3678 C.ar    1  UNL1        0.0773
      9 C         141.1557  142.4140  162.8976 C.ar    1  UNL1        0.0890
     10 CL        141.8732  141.5278  161.9230 Cl      1  UNL1       -0.0794
     11 C         140.3646  143.5880  162.4019 C.ar    1  UNL1        0.0878
     12 C         139.6471  144.4742  163.3765 C.ar    1  UNL1        0.1543
     13 F         138.8559  145.6482  162.8808 F       1  UNL1       -0.2028
     14 C         139.7207  144.1864  164.8468 C.ar    1  UNL1        0.0355
     15 C         140.5119  143.0123  165.3425 C.ar    1  UNL1        0.0553
     16 C         140.5856  142.7245  166.8127 C.ar    1  UNL1        0.1705
     17 O         139.9875  143.4158  168.0020 O.2     1  UNL1       -0.4382
     18 N         140.2909  143.8759  160.9316 N.pl3   1  UNL1       -0.3050
     19 C         139.4800  143.1162  159.9240 C.3     1  UNL1        0.0910
     20 C         139.7031  143.7448  158.5804 C.3     1  UNL1        0.0244
     21 C         140.6521  144.8930  158.7577 C.3     1  UNL1        0.0357
     22 C         141.0153  144.9740  160.2108 C.3     1  UNL1        0.0922
     23 C         141.1502  145.8007  157.6725 C.3     1  UNL1        0.0525
     24 C         140.2283  146.2258  156.5683 C.3     1  UNL1        0.0169
     25 N         142.5703  146.2833  157.6914 N.3     1  UNL1       -0.3221
     26 H         142.7353  146.8861  156.8853 H       1  UNL1        0.1188
     27 H         143.2018  145.4833  157.6527 H       1  UNL1        0.1188
     28 C         142.7381  140.0659  163.8889 C.3     1  UNL1        0.0886
     29 C         143.9663  139.7365  163.0933 C.3     1  UNL1        0.0246
     30 C         142.7527  138.8603  162.9965 C.3     1  UNL1        0.0246
@<TRIPOS>BOND
     1     1     2    1
     2     2     3   ar
     3     3     4   ar
     4     4     5   ar
     5     5     6    2
     6     5     7   ar
     7     7    28    1
     8    28    29    1
     9    29    30    1
    10     7     8   ar
    11     8     9   ar
    12     9    10    1
    13     9    11   ar
    14    11    18    1
    15    18    19    1
    16    19    20    1
    17    21    20    1
    18    21    23    1
    19    23    24    1
    20    23    25    1
    21    21    22    1
    22    11    12   ar
    23    12    13    1
    24    12    14   ar
    25    14    15   ar
    26    15    16   ar
    27    16    17   ar
    28    17     2   ar
    29    16     4   ar
    30    30    28    1
    31    15     8   ar
    32    22    18    1
    33    25    26    1
    34    25    27    1
@<TRIPOS>MOLECULE
*****
 30 34 0 0 0
SMALL
GASTEIGER

@<TRIPOS>ATOM
      1 C         145.1941  142.4179  157.7664 C.3     1  UNL1        0.0950
      2 C         144.3916  141.8801  158.9139 C.ar    1  UNL1        0.2063
      3 N         143.3006  140.8547  158.8229 N.ar    1  UNL1       -0.2072
      4 C         142.7738  140.6141  160.2066 C.ar    1  UNL1        0.1744
      5 C         141.6961  139.7100  160.7272 C.ar    1  UNL1        0.2816
      6 O         140.9308  138.8332  159.7809 O.2     1  UNL1       -0.2652
      7 N         141.3838  139.6826  162.1941 N.ar    1  UNL1       -0.2951
      8 C         142.1492  140.5594  163.1404 C.ar    1  UNL1        0.0773
      9 C         141.8369  140.5321  164.6072 C.ar    1  UNL1        0.0890
     10 CL        140.7592  139.6280  165.1278 Cl      1  UNL1       -0.0794
     11 C         142.6023  141.4089  165.5534 C.ar    1  UNL1        0.0878
     12 C         143.6800  142.3130  165.0329 C.ar    1  UNL1        0.1543
     13 F         144.4454  143.1899  165.9791 F       1  UNL1       -0.2028
     14 C         143.9923  142.3404  163.5659 C.ar    1  UNL1        0.0355
     15 C         143.2269  141.4636  162.6197 C.ar    1  UNL1        0.0553
     16 C         143.5392  141.4909  161.1528 C.ar    1  UNL1        0.1705
     17 O         144.5390  142.2733  160.3539 O.2     1  UNL1       -0.4382
     18 N         142.2900  141.3816  167.0203 N.pl3   1  UNL1       -0.3050
     19 C         142.6889  140.3061  167.9868 C.3     1  UNL1        0.0910
     20 C         142.1693  140.6848  169.3421 C.3     1  UNL1        0.0244
     21 C         141.4493  141.9944  169.2132 C.3     1  UNL1        0.0357
     22 C         141.5238  142.4250  167.7783 C.3     1  UNL1        0.0922
     23 C         140.7734  142.7420  170.3240 C.3     1  UNL1        0.0525
     24 C         140.2815  144.1406  170.0962 C.3     1  UNL1        0.0169
     25 N         140.5895  142.0911  171.6629 N.3     1  UNL1       -0.3221
     26 H         140.1155  142.7380  172.2932 H       1  UNL1        0.1188
     27 H         141.5008  141.8457  172.0497 H       1  UNL1        0.1188
     28 C         140.3061  138.7785  162.7147 C.3     1  UNL1        0.0886
     29 C         138.8630  138.5313  163.0407 C.3     1  UNL1        0.0246
     30 C         139.8825  137.4598  163.2904 C.3     1  UNL1        0.0246
@<TRIPOS>BOND
     1     1     2    1
     2     2     3   ar
     3     3     4   ar
     4     4     5   ar
     5     5     6    2
     6     5     7   ar
     7     7    28    1
     8    28    29    1
     9    29    30    1
    10     7     8   ar
    11     8     9   ar
    12     9    10    1
    13     9    11   ar
    14    11    18    1
    15    18    19    1
    16    19    20    1
    17    21    20    1
    18    21    23    1
    19    23    24    1
    20    23    25    1
    21    21    22    1
    22    11    12   ar
    23    12    13    1
    24    12    14   ar
    25    14    15   ar
    26    15    16   ar
    27    16    17   ar
    28    17     2   ar
    29    16     4   ar
    30    30    28    1
    31    15     8   ar
    32    22    18    1
    33    25    26    1
    34    25    27    1
@<TRIPOS>MOLECULE
*****
 30 34 0 0 0
SMALL
GASTEIGER

@<TRIPOS>ATOM
      1 C         140.3188  140.8796  170.8331 C.3     1  UNL1        0.0950
      2 C         140.1879  140.7656  169.3431 C.ar    1  UNL1        0.2063
      3 N         139.4195  139.7107  168.6037 N.ar    1  UNL1       -0.2072
      4 C         139.5591  139.9796  167.1346 C.ar    1  UNL1        0.1744
      5 C         139.0184  139.2703  165.9286 C.ar    1  UNL1        0.2816
      6 O         138.1638  138.0492  166.0971 O.2     1  UNL1       -0.2652
      7 N         139.3324  139.7822  164.5540 N.ar    1  UNL1       -0.2951
      8 C         140.1870  141.0033  164.3854 C.ar    1  UNL1        0.0773
      9 C         140.5010  141.5152  163.0109 C.ar    1  UNL1        0.0890
     10 CL        139.9603  140.8059  161.8049 Cl      1  UNL1       -0.0794
     11 C         141.3556  142.7363  162.8424 C.ar    1  UNL1        0.0878
     12 C         141.8963  143.4456  164.0484 C.ar    1  UNL1        0.1543
     13 F         142.7509  144.6668  163.8799 F       1  UNL1       -0.2028
     14 C         141.5823  142.9338  165.4230 C.ar    1  UNL1        0.0355
     15 C         140.7277  141.7126  165.5916 C.ar    1  UNL1        0.0553
     16 C         140.4137  141.2008  166.9661 C.ar    1  UNL1        0.1705
     17 O         140.8023  141.6865  168.3310 O.2     1  UNL1       -0.4382
     18 N         141.6696  143.2482  161.4679 N.pl3   1  UNL1       -0.3050
     19 C         141.0005  144.4028  160.7828 C.3     1  UNL1        0.0910
     20 C         141.6252  144.5635  159.4285 C.3     1  UNL1        0.0244
     21 C         142.6803  143.5082  159.2766 C.3     1  UNL1        0.0357
     22 C         142.7078  142.6953  160.5369 C.3     1  UNL1        0.0922
     23 C         143.5545  143.3020  158.0753 C.3     1  UNL1        0.0525
     24 C         144.8096  142.4889  158.1917 C.3     1  UNL1        0.0169
     25 N         143.1737  143.9090  156.7575 N.3     1  UNL1       -0.3221
     26 H         143.8755  143.6693  156.0573 H       1  UNL1        0.1188
     27 H         143.1211  144.9232  156.8528 H       1  UNL1        0.1188
     28 C         138.7917  139.0729  163.3479 C.3     1  UNL1        0.0886
     29 C         137.8181  139.0047  162.2089 C.3     1  UNL1        0.0246
     30 C         138.8288  137.9126  162.3981 C.3     1  UNL1        0.0246
@<TRIPOS>BOND
     1     1     2    1
     2     2     3   ar
     3     3     4   ar
     4     4     5   ar
     5     5     6    2
     6     5     7   ar
     7     7    28    1
     8    28    29    1
     9    29    30    1
    10     7     8   ar
    11     8     9   ar
    12     9    10    1
    13     9    11   ar
    14    11    18    1
    15    18    19    1
    16    19    20    1
    17    21    20    1
    18    21    23    1
    19    23    24    1
    20    23    25    1
    21    21    22    1
    22    11    12   ar
    23    12    13    1
    24    12    14   ar
    25    14    15   ar
    26    15    16   ar
    27    16    17   ar
    28    17     2   ar
    29    16     4   ar
    30    30    28    1
    31    15     8   ar
    32    22    18    1
    33    25    26    1
    34    25    27    1
@<TRIPOS>MOLECULE
*****
 30 34 0 0 0
SMALL
GASTEIGER

@<TRIPOS>ATOM
      1 C         137.8925  140.7597  157.6359 C.3     1  UNL1        0.0950
      2 C         138.7270  141.2213  158.7937 C.ar    1  UNL1        0.2063
      3 N         139.9319  142.1111  158.7128 N.ar    1  UNL1       -0.2072
      4 C         140.4527  142.3140  160.1048 C.ar    1  UNL1        0.1744
      5 C         141.6169  143.0960  160.6368 C.ar    1  UNL1        0.2816
      6 O         142.4999  143.8605  159.6956 O.2     1  UNL1       -0.2652
      7 N         141.8981  143.1136  162.1101 N.ar    1  UNL1       -0.2951
      8 C         141.0151  142.3491  163.0514 C.ar    1  UNL1        0.0773
      9 C         141.2963  142.3667  164.5247 C.ar    1  UNL1        0.0890
     10 CL        142.4605  143.1487  165.0567 Cl      1  UNL1       -0.0794
     11 C         140.4133  141.6022  165.4659 C.ar    1  UNL1        0.0878
     12 C         139.2492  140.8202  164.9339 C.ar    1  UNL1        0.1543
     13 F         138.3662  140.0557  165.8751 F       1  UNL1       -0.2028
     14 C         138.9679  140.8026  163.4605 C.ar    1  UNL1        0.0355
     15 C         139.8509  141.5671  162.5193 C.ar    1  UNL1        0.0553
     16 C         139.5697  141.5495  161.0460 C.ar    1  UNL1        0.1705
     17 O         138.5032  140.8742  160.2357 O.2     1  UNL1       -0.4382
     18 N         140.6945  141.6198  166.9392 N.pl3   1  UNL1       -0.3050
     19 C         140.3907  142.7467  167.8814 C.3     1  UNL1        0.0910
     20 C         140.8373  142.3369  169.2536 C.3     1  UNL1        0.0244
     21 C         141.4172  140.9566  169.1593 C.3     1  UNL1        0.0357
     22 C         141.3289  140.5135  167.7290 C.3     1  UNL1        0.0922
     23 C         141.9855  140.1596  170.2958 C.3     1  UNL1        0.0525
     24 C         142.5463  138.7911  170.0454 C.3     1  UNL1        0.0169
     25 N         141.9929  140.7310  171.6826 N.3     1  UNL1       -0.3221
     26 H         142.4126  140.0590  172.3250 H       1  UNL1        0.1188
     27 H         141.0356  140.9281  171.9743 H       1  UNL1        0.1188
     28 C         143.0623  143.8956  162.6422 C.3     1  UNL1        0.0886
     29 C         144.5269  143.9979  162.9493 C.3     1  UNL1        0.0246
     30 C         143.6141  145.1478  163.2565 C.3     1  UNL1        0.0246
@<TRIPOS>BOND
     1     1     2    1
     2     2     3   ar
     3     3     4   ar
     4     4     5   ar
     5     5     6    2
     6     5     7   ar
     7     7    28    1
     8    28    29    1
     9    29    30    1
    10     7     8   ar
    11     8     9   ar
    12     9    10    1
    13     9    11   ar
    14    11    18    1
    15    18    19    1
    16    19    20    1
    17    21    20    1
    18    21    23    1
    19    23    24    1
    20    23    25    1
    21    21    22    1
    22    11    12   ar
    23    12    13    1
    24    12    14   ar
    25    14    15   ar
    26    15    16   ar
    27    16    17   ar
    28    17     2   ar
    29    16     4   ar
    30    30    28    1
    31    15     8   ar
    32    22    18    1
    33    25    26    1
    34    25    27    1
@<TRIPOS>MOLECULE
*****
 30 34 0 0 0
SMALL
GASTEIGER

@<TRIPOS>ATOM
      1 C         139.6536  138.8503  157.1687 C.3     1  UNL1        0.0950
      2 C         140.1703  139.4986  158.4187 C.ar    1  UNL1        0.2063
      3 N         140.8962  140.8089  158.4971 N.ar    1  UNL1       -0.2072
      4 C         141.2264  141.0706  159.9367 C.ar    1  UNL1        0.1744
      5 C         141.9348  142.2064  160.6135 C.ar    1  UNL1        0.2816
      6 O         142.4568  143.3549  159.8021 O.2     1  UNL1       -0.2652
      7 N         142.1214  142.1936  162.1019 N.ar    1  UNL1       -0.2951
      8 C         141.5995  141.0451  162.9133 C.ar    1  UNL1        0.0773
      9 C         141.7860  141.0323  164.4016 C.ar    1  UNL1        0.0890
     10 CL        142.4944  142.1680  165.0784 Cl      1  UNL1       -0.0794
     11 C         141.2640  139.8837  165.2130 C.ar    1  UNL1        0.0878
     12 C         140.5556  138.7480  164.5362 C.ar    1  UNL1        0.1543
     13 F         140.0337  137.5994  165.3476 F       1  UNL1       -0.2028
     14 C         140.3690  138.7607  163.0478 C.ar    1  UNL1        0.0355
     15 C         140.8910  139.9093  162.2364 C.ar    1  UNL1        0.0553
     16 C         140.7045  139.9221  160.7481 C.ar    1  UNL1        0.1705
     17 O         140.0518  138.9505  159.8100 O.2     1  UNL1       -0.4382
     18 N         141.4505  139.8709  166.7013 N.pl3   1  UNL1       -0.3050
     19 C         142.6553  139.3601  167.4346 C.3     1  UNL1        0.0910
     20 C         142.4144  139.5402  168.9042 C.3     1  UNL1        0.0244
     21 C         141.0606  140.1623  169.0791 C.3     1  UNL1        0.0357
     22 C         140.4650  140.3667  167.7177 C.3     1  UNL1        0.0922
     23 C         140.4159  140.5176  170.3860 C.3     1  UNL1        0.0525
     24 C         140.3505  141.9504  170.8250 C.3     1  UNL1        0.0169
     25 N         139.8365  139.4401  171.2538 N.3     1  UNL1       -0.3221
     26 H         139.4423  139.8577  172.0968 H       1  UNL1        0.1188
     27 H         140.5702  138.7804  171.5124 H       1  UNL1        0.1188
     28 C         142.8298  143.3293  162.7787 C.3     1  UNL1        0.0886
     29 C         144.1013  143.9725  163.2475 C.3     1  UNL1        0.0246
     30 C         142.7855  144.6533  163.4822 C.3     1  UNL1        0.0246
@<TRIPOS>BOND
     1     1     2    1
     2     2     3   ar
     3     3     4   ar
     4     4     5   ar
     5     5     6    2
     6     5     7   ar
     7     7    28    1
     8    28    29    1
     9    29    30    1
    10     7     8   ar
    11     8     9   ar
    12     9    10    1
    13     9    11   ar
    14    11    18    1
    15    18    19    1
    16    19    20    1
    17    21    20    1
    18    21    23    1
    19    23    24    1
    20    23    25    1
    21    21    22    1
    22    11    12   ar
    23    12    13    1
    24    12    14   ar
    25    14    15   ar
    26    15    16   ar
    27    16    17   ar
    28    17     2   ar
    29    16     4   ar
    30    30    28    1
    31    15     8   ar
    32    22    18    1
    33    25    26    1
    34    25    27    1
