@<TRIPOS>MOLECULE
*****
 27 29 0 0 0
SMALL
GASTEIGER

@<TRIPOS>ATOM
      1 N         142.1901  143.7971  162.0530 N.3     1  UNL1       -0.2682
      2 C         142.9325  144.5990  163.0807 C.3     1  UNL1        0.0897
      3 C         143.2722  143.9872  164.4074 C.3     1  UNL1        0.0899
      4 N         142.8697  142.5735  164.7066 N.3     1  UNL1       -0.2665
      5 C         142.1274  141.7716  163.6790 C.3     1  UNL1        0.0899
      6 C         141.7876  142.3834  162.3522 C.3     1  UNL1        0.0897
      7 C         141.8504  144.4089  160.7263 C.3     1  UNL1        0.1056
      8 O         139.6633  144.4722  159.3254 O.3     1  UNL1       -0.3793
      9 C         140.4775  144.9631  160.4856 C.3     1  UNL1        0.1700
     10 H         138.8079  144.9294  159.3142 H       1  UNL1        0.2106
     11 C         139.9188  146.0083  161.4051 C.3     1  UNL1        0.2358
     12 O         138.6757  145.7251  162.1953 O.3     1  UNL1       -0.4728
     13 C         138.6107  144.5186  163.0843 C.ar    1  UNL1        0.1388
     14 C         137.8336  143.3103  162.6532 C.ar    1  UNL1        0.0392
     15 C         137.7686  142.1039  163.5423 C.ar    1  UNL1        0.0327
     16 C         138.4807  142.1059  164.8624 C.ar    1  UNL1        0.1403
     17 F         138.4157  140.8995  165.7515 F       1  UNL1       -0.2042
     18 C         139.2578  143.3143  165.2936 C.ar    1  UNL1        0.0327
     19 C         139.3228  144.5207  164.4045 C.ar    1  UNL1        0.0392
     20 C         143.2094  141.9617  166.0333 C.3     1  UNL1        0.0992
     21 C         142.1150  141.5798  166.9854 C.ar    1  UNL1       -0.0061
     22 C         141.5909  140.1744  167.0008 C.ar    1  UNL1       -0.0021
     23 C         140.4966  139.7924  167.9529 C.ar    1  UNL1        0.0111
     24 C         139.9263  140.8159  168.8896 C.ar    1  UNL1        0.0577
     25 CL        138.8319  140.4340  169.8417 Cl      1  UNL1       -0.0822
     26 C         140.4504  142.2213  168.8742 C.ar    1  UNL1        0.0111
     27 C         141.5448  142.6032  167.9221 C.ar    1  UNL1       -0.0021
@<TRIPOS>BOND
     1     9     8    1
     2     9    11    1
     3    11    12    1
     4    12    13    1
     5    13    14   ar
     6    14    15   ar
     7    15    16   ar
     8    16    17    1
     9    16    18   ar
    10    18    19   ar
    11     9     7    1
    12     7     1    1
    13     1     2    1
    14     2     3    1
    15     3     4    1
    16     4    20    1
    17    20    21    1
    18    21    22   ar
    19    22    23   ar
    20    23    24   ar
    21    24    25    1
    22    24    26   ar
    23    26    27   ar
    24     4     5    1
    25     5     6    1
    26    19    13   ar
    27     6     1    1
    28    27    21   ar
    29     8    10    1
@<TRIPOS>MOLECULE
*****
 27 29 0 0 0
SMALL
GASTEIGER

@<TRIPOS>ATOM
      1 N         139.5154  139.7085  161.8946 N.3     1  UNL1       -0.2682
      2 C         138.2290  139.8194  162.6582 C.3     1  UNL1        0.0897
      3 C         138.2259  139.6591  164.1496 C.3     1  UNL1        0.0899
      4 N         139.5092  139.3879  164.8774 N.3     1  UNL1       -0.2665
      5 C         140.7955  139.2770  164.1139 C.3     1  UNL1        0.0899
      6 C         140.7986  139.4373  162.6224 C.3     1  UNL1        0.0897
      7 C         139.5185  139.8687  160.4032 C.3     1  UNL1        0.1056
      8 O         137.4168  140.1293  158.8983 O.3     1  UNL1       -0.3793
      9 C         138.4954  140.7431  159.7408 C.3     1  UNL1        0.1700
     10 H         136.8437  140.8286  158.5469 H       1  UNL1        0.2106
     11 C         138.5510  142.2313  159.9208 C.3     1  UNL1        0.2358
     12 O         139.6621  142.8495  160.7166 O.3     1  UNL1       -0.4728
     13 C         139.3747  143.4630  162.0550 C.ar    1  UNL1        0.1388
     14 C         137.9741  143.4697  162.5917 C.ar    1  UNL1        0.0392
     15 C         137.6867  144.0833  163.9300 C.ar    1  UNL1        0.0327
     16 C         138.8000  144.6900  164.7315 C.ar    1  UNL1        0.1403
     17 F         138.5126  145.3036  166.0698 F       1  UNL1       -0.2042
     18 C         140.2006  144.6833  164.1947 C.ar    1  UNL1        0.0327
     19 C         140.4880  144.0698  162.8565 C.ar    1  UNL1        0.0392
     20 C         139.5061  139.2276  166.3688 C.3     1  UNL1        0.0992
     21 C         139.7714  140.4115  167.2509 C.ar    1  UNL1       -0.0061
     22 C         139.5980  140.2938  168.7362 C.ar    1  UNL1       -0.0021
     23 C         139.8633  141.4776  169.6184 C.ar    1  UNL1        0.0111
     24 C         140.3020  142.7791  169.0152 C.ar    1  UNL1        0.0577
     25 CL        140.5673  143.9629  169.8974 Cl      1  UNL1       -0.0822
     26 C         140.4754  142.8968  167.5299 C.ar    1  UNL1        0.0111
     27 C         140.2101  141.7129  166.6478 C.ar    1  UNL1       -0.0021
@<TRIPOS>BOND
     1     9     8    1
     2     9    11    1
     3    11    12    1
     4    12    13    1
     5    13    14   ar
     6    14    15   ar
     7    15    16   ar
     8    16    17    1
     9    16    18   ar
    10    18    19   ar
    11     9     7    1
    12     7     1    1
    13     1     2    1
    14     2     3    1
    15     3     4    1
    16     4    20    1
    17    20    21    1
    18    21    22   ar
    19    22    23   ar
    20    23    24   ar
    21    24    25    1
    22    24    26   ar
    23    26    27   ar
    24     4     5    1
    25     5     6    1
    26    19    13   ar
    27     6     1    1
    28    27    21   ar
    29     8    10    1
@<TRIPOS>MOLECULE
*****
 27 29 0 0 0
SMALL
GASTEIGER

@<TRIPOS>ATOM
      1 N         141.1890  143.7538  162.9992 N.3     1  UNL1       -0.2682
      2 C         141.3227  142.4125  162.3413 C.3     1  UNL1        0.0897
      3 C         141.6353  141.1999  163.1670 C.3     1  UNL1        0.0899
      4 N         141.8143  141.3286  164.6507 N.3     1  UNL1       -0.2665
      5 C         141.6806  142.6699  165.3087 C.3     1  UNL1        0.0899
      6 C         141.3679  143.8826  164.4830 C.3     1  UNL1        0.0897
      7 C         140.8764  144.9664  162.1735 C.3     1  UNL1        0.1056
      8 O         139.1599  146.7049  161.2897 O.3     1  UNL1       -0.3793
      9 C         139.4680  145.4764  162.0933 C.3     1  UNL1        0.1700
     10 H         138.2104  146.8963  161.3429 H       1  UNL1        0.2106
     11 C         138.3678  144.7578  162.8166 C.3     1  UNL1        0.2358
     12 O         137.6558  143.6157  162.1544 O.3     1  UNL1       -0.4728
     13 C         137.8531  142.2162  162.6570 C.ar    1  UNL1        0.1388
     14 C         137.8807  141.0691  161.6909 C.ar    1  UNL1        0.0392
     15 C         138.0780  139.6698  162.1936 C.ar    1  UNL1        0.0327
     16 C         138.2477  139.4174  163.6624 C.ar    1  UNL1        0.1403
     17 F         138.4450  138.0179  164.1651 F       1  UNL1       -0.2042
     18 C         138.2201  140.5644  164.6286 C.ar    1  UNL1        0.0327
     19 C         138.0229  141.9638  164.1259 C.ar    1  UNL1        0.0392
     20 C         142.1269  140.1160  165.4764 C.3     1  UNL1        0.0992
     21 C         141.6519  140.0330  166.8969 C.ar    1  UNL1       -0.0061
     22 C         140.1918  140.1769  167.2091 C.ar    1  UNL1       -0.0021
     23 C         139.7168  140.0940  168.6294 C.ar    1  UNL1        0.0111
     24 C         140.7019  139.8671  169.7377 C.ar    1  UNL1        0.0577
     25 CL        140.2269  139.7841  171.1580 Cl      1  UNL1       -0.0822
     26 C         142.1620  139.7232  169.4255 C.ar    1  UNL1        0.0111
     27 C         142.6370  139.8062  168.0051 C.ar    1  UNL1       -0.0021
@<TRIPOS>BOND
     1     9     8    1
     2     9    11    1
     3    11    12    1
     4    12    13    1
     5    13    14   ar
     6    14    15   ar
     7    15    16   ar
     8    16    17    1
     9    16    18   ar
    10    18    19   ar
    11     9     7    1
    12     7     1    1
    13     1     2    1
    14     2     3    1
    15     3     4    1
    16     4    20    1
    17    20    21    1
    18    21    22   ar
    19    22    23   ar
    20    23    24   ar
    21    24    25    1
    22    24    26   ar
    23    26    27   ar
    24     4     5    1
    25     5     6    1
    26    19    13   ar
    27     6     1    1
    28    27    21   ar
    29     8    10    1
@<TRIPOS>MOLECULE
*****
 27 29 0 0 0
SMALL
GASTEIGER

@<TRIPOS>ATOM
      1 N         138.7234  141.3972  162.2370 N.3     1  UNL1       -0.2682
      2 C         137.7562  141.5555  163.3726 C.3     1  UNL1        0.0897
      3 C         138.2459  142.0026  164.7180 C.3     1  UNL1        0.0899
      4 N         139.7028  142.2915  164.9279 N.3     1  UNL1       -0.2665
      5 C         140.6700  142.1332  163.7924 C.3     1  UNL1        0.0899
      6 C         140.1803  141.6861  162.4469 C.3     1  UNL1        0.0897
      7 C         138.2337  140.9500  160.8915 C.3     1  UNL1        0.1056
      8 O         136.1512  139.5350  160.2507 O.3     1  UNL1       -0.3793
      9 C         137.5662  139.6151  160.7421 C.3     1  UNL1        0.1700
     10 H         135.8743  138.6061  160.2125 H       1  UNL1        0.2106
     11 C         138.3136  138.3603  161.0840 C.3     1  UNL1        0.2358
     12 O         138.4010  137.9045  162.5104 O.3     1  UNL1       -0.4728
     13 C         139.6827  138.0672  163.2726 C.ar    1  UNL1        0.1388
     14 C         139.6492  138.4322  164.7270 C.ar    1  UNL1        0.0392
     15 C         140.9308  138.5949  165.4892 C.ar    1  UNL1        0.0327
     16 C         142.2460  138.3926  164.7968 C.ar    1  UNL1        0.1403
     17 F         143.5277  138.5553  165.5590 F       1  UNL1       -0.2042
     18 C         142.2795  138.0276  163.3423 C.ar    1  UNL1        0.0327
     19 C         140.9979  137.8649  162.5802 C.ar    1  UNL1        0.0392
     20 C         140.1925  142.7387  166.2733 C.3     1  UNL1        0.0992
     21 C         140.7785  141.7409  167.2278 C.ar    1  UNL1       -0.0061
     22 C         142.2623  141.5247  167.2695 C.ar    1  UNL1       -0.0021
     23 C         142.8483  140.5269  168.2239 C.ar    1  UNL1        0.0111
     24 C         141.9506  139.7453  169.1368 C.ar    1  UNL1        0.0577
     25 CL        142.5367  138.7476  170.0912 Cl      1  UNL1       -0.0822
     26 C         140.4669  139.9615  169.0952 C.ar    1  UNL1        0.0111
     27 C         139.8808  140.9593  168.1406 C.ar    1  UNL1       -0.0021
@<TRIPOS>BOND
     1     9     8    1
     2     9    11    1
     3    11    12    1
     4    12    13    1
     5    13    14   ar
     6    14    15   ar
     7    15    16   ar
     8    16    17    1
     9    16    18   ar
    10    18    19   ar
    11     9     7    1
    12     7     1    1
    13     1     2    1
    14     2     3    1
    15     3     4    1
    16     4    20    1
    17    20    21    1
    18    21    22   ar
    19    22    23   ar
    20    23    24   ar
    21    24    25    1
    22    24    26   ar
    23    26    27   ar
    24     4     5    1
    25     5     6    1
    26    19    13   ar
    27     6     1    1
    28    27    21   ar
    29     8    10    1
@<TRIPOS>MOLECULE
*****
 27 29 0 0 0
SMALL
GASTEIGER

@<TRIPOS>ATOM
      1 N         140.3816  138.5284  162.1178 N.3     1  UNL1       -0.2682
      2 C         139.9826  137.5939  163.2213 C.3     1  UNL1        0.0897
      3 C         140.5707  137.7568  164.5915 C.3     1  UNL1        0.0899
      4 N         141.5579  138.8542  164.8583 N.3     1  UNL1       -0.2665
      5 C         141.9569  139.7887  163.7549 C.3     1  UNL1        0.0899
      6 C         141.3687  139.6258  162.3847 C.3     1  UNL1        0.0897
      7 C         139.7935  138.3654  160.7476 C.3     1  UNL1        0.1056
      8 O         138.4187  139.5704  158.9016 O.3     1  UNL1       -0.3793
      9 C         138.6055  139.1850  160.3391 C.3     1  UNL1        0.1700
     10 H         137.6078  140.0948  158.8101 H       1  UNL1        0.2106
     11 C         137.6041  139.6191  161.3682 C.3     1  UNL1        0.2358
     12 O         137.3008  141.0766  161.5513 O.3     1  UNL1       -0.4728
     13 C         137.8440  141.8122  162.7404 C.ar    1  UNL1        0.1388
     14 C         137.8381  143.3120  162.7615 C.ar    1  UNL1        0.0392
     15 C         138.3814  144.0475  163.9506 C.ar    1  UNL1        0.0327
     16 C         138.9305  143.2831  165.1186 C.ar    1  UNL1        0.1403
     17 F         139.4738  144.0187  166.3077 F       1  UNL1       -0.2042
     18 C         138.9364  141.7833  165.0975 C.ar    1  UNL1        0.0327
     19 C         138.3932  141.0479  163.9084 C.ar    1  UNL1        0.0392
     20 C         142.1460  139.0172  166.2285 C.3     1  UNL1        0.0992
     21 C         141.7047  140.1525  167.1040 C.ar    1  UNL1       -0.0061
     22 C         140.4511  140.0281  167.9184 C.ar    1  UNL1       -0.0021
     23 C         140.0098  141.1634  168.7938 C.ar    1  UNL1        0.0111
     24 C         140.8220  142.4230  168.8550 C.ar    1  UNL1        0.0577
     25 CL        140.3807  143.5582  169.7304 Cl      1  UNL1       -0.0822
     26 C         142.0756  142.5474  168.0406 C.ar    1  UNL1        0.0111
     27 C         142.5169  141.4121  167.1651 C.ar    1  UNL1       -0.0021
@<TRIPOS>BOND
     1     9     8    1
     2     9    11    1
     3    11    12    1
     4    12    13    1
     5    13    14   ar
     6    14    15   ar
     7    15    16   ar
     8    16    17    1
     9    16    18   ar
    10    18    19   ar
    11     9     7    1
    12     7     1    1
    13     1     2    1
    14     2     3    1
    15     3     4    1
    16     4    20    1
    17    20    21    1
    18    21    22   ar
    19    22    23   ar
    20    23    24   ar
    21    24    25    1
    22    24    26   ar
    23    26    27   ar
    24     4     5    1
    25     5     6    1
    26    19    13   ar
    27     6     1    1
    28    27    21   ar
    29     8    10    1
@<TRIPOS>MOLECULE
*****
 27 29 0 0 0
SMALL
GASTEIGER

@<TRIPOS>ATOM
      1 N         139.0437  139.9381  160.0598 N.3     1  UNL1       -0.2682
      2 C         137.8079  139.4080  160.7245 C.3     1  UNL1        0.0897
      3 C         137.9166  138.6484  162.0134 C.3     1  UNL1        0.0899
      4 N         139.2612  138.4188  162.6375 N.3     1  UNL1       -0.2665
      5 C         140.4969  138.9488  161.9728 C.3     1  UNL1        0.0899
      6 C         140.3882  139.7085  160.6839 C.3     1  UNL1        0.0897
      7 C         138.9350  140.6977  158.7709 C.3     1  UNL1        0.1056
      8 O         137.6009  142.5998  157.6082 O.3     1  UNL1       -0.3793
      9 C         138.4082  142.1021  158.7703 C.3     1  UNL1        0.1700
     10 H         137.3402  143.5206  157.7663 H       1  UNL1        0.2106
     11 C         138.6886  143.0089  159.9319 C.3     1  UNL1        0.2358
     12 O         137.7250  143.0778  161.0793 O.3     1  UNL1       -0.4728
     13 C         138.2377  143.2199  162.4818 C.ar    1  UNL1        0.1388
     14 C         138.7060  144.5560  162.9774 C.ar    1  UNL1        0.0392
     15 C         139.2187  144.6981  164.3798 C.ar    1  UNL1        0.0327
     16 C         139.2631  143.5042  165.2867 C.ar    1  UNL1        0.1403
     17 F         139.7758  143.6463  166.6893 F       1  UNL1       -0.2042
     18 C         138.7948  142.1681  164.7912 C.ar    1  UNL1        0.0327
     19 C         138.2821  142.0260  163.3888 C.ar    1  UNL1        0.0392
     20 C         139.3699  137.6592  163.9263 C.3     1  UNL1        0.0992
     21 C         139.3900  138.3968  165.2323 C.ar    1  UNL1       -0.0061
     22 C         138.1635  138.4274  166.0953 C.ar    1  UNL1       -0.0021
     23 C         138.1835  139.1650  167.4012 C.ar    1  UNL1        0.0111
     24 C         139.4300  139.8721  167.8442 C.ar    1  UNL1        0.0577
     25 CL        139.4501  140.6097  169.1501 Cl      1  UNL1       -0.0822
     26 C         140.6566  139.8415  166.9812 C.ar    1  UNL1        0.0111
     27 C         140.6365  139.1039  165.6752 C.ar    1  UNL1       -0.0021
@<TRIPOS>BOND
     1     9     8    1
     2     9    11    1
     3    11    12    1
     4    12    13    1
     5    13    14   ar
     6    14    15   ar
     7    15    16   ar
     8    16    17    1
     9    16    18   ar
    10    18    19   ar
    11     9     7    1
    12     7     1    1
    13     1     2    1
    14     2     3    1
    15     3     4    1
    16     4    20    1
    17    20    21    1
    18    21    22   ar
    19    22    23   ar
    20    23    24   ar
    21    24    25    1
    22    24    26   ar
    23    26    27   ar
    24     4     5    1
    25     5     6    1
    26    19    13   ar
    27     6     1    1
    28    27    21   ar
    29     8    10    1
@<TRIPOS>MOLECULE
*****
 27 29 0 0 0
SMALL
GASTEIGER

@<TRIPOS>ATOM
      1 N         141.7065  144.3368  162.0677 N.3     1  UNL1       -0.2682
      2 C         141.6199  142.8450  161.9375 C.3     1  UNL1        0.0897
      3 C         142.4142  141.9645  162.8560 C.3     1  UNL1        0.0899
      4 N         143.2952  142.5758  163.9048 N.3     1  UNL1       -0.2665
      5 C         143.3820  144.0676  164.0351 C.3     1  UNL1        0.0899
      6 C         142.5876  144.9482  163.1165 C.3     1  UNL1        0.0897
      7 C         140.9122  145.2173  161.1492 C.3     1  UNL1        0.1056
      8 O         139.0961  147.0566  160.8870 O.3     1  UNL1       -0.3793
      9 C         139.6764  145.9034  161.6509 C.3     1  UNL1        0.1700
     10 H         138.3052  147.3823  161.3445 H       1  UNL1        0.2106
     11 C         139.0207  145.4364  162.9167 C.3     1  UNL1        0.2358
     12 O         138.1926  144.1858  162.9151 O.3     1  UNL1       -0.4728
     13 C         138.5157  143.0711  163.8655 C.ar    1  UNL1        0.1388
     14 C         139.5341  143.2790  164.9469 C.ar    1  UNL1        0.0392
     15 C         139.8572  142.1644  165.8972 C.ar    1  UNL1        0.0327
     16 C         139.1618  140.8418  165.7661 C.ar    1  UNL1        0.1403
     17 F         139.4849  139.7271  166.7165 F       1  UNL1       -0.2042
     18 C         138.1434  140.6338  164.6847 C.ar    1  UNL1        0.0327
     19 C         137.8203  141.7485  163.7344 C.ar    1  UNL1        0.0392
     20 C         144.0896  141.6954  164.8234 C.3     1  UNL1        0.0992
     21 C         143.4709  141.1797  166.0889 C.ar    1  UNL1       -0.0061
     22 C         143.1484  139.7212  166.2259 C.ar    1  UNL1       -0.0021
     23 C         142.5297  139.2055  167.4913 C.ar    1  UNL1        0.0111
     24 C         142.2336  140.1484  168.6198 C.ar    1  UNL1        0.0577
     25 CL        141.6150  139.6327  169.8852 Cl      1  UNL1       -0.0822
     26 C         142.5562  141.6069  168.4828 C.ar    1  UNL1        0.0111
     27 C         143.1748  142.1225  167.2173 C.ar    1  UNL1       -0.0021
@<TRIPOS>BOND
     1     9     8    1
     2     9    11    1
     3    11    12    1
     4    12    13    1
     5    13    14   ar
     6    14    15   ar
     7    15    16   ar
     8    16    17    1
     9    16    18   ar
    10    18    19   ar
    11     9     7    1
    12     7     1    1
    13     1     2    1
    14     2     3    1
    15     3     4    1
    16     4    20    1
    17    20    21    1
    18    21    22   ar
    19    22    23   ar
    20    23    24   ar
    21    24    25    1
    22    24    26   ar
    23    26    27   ar
    24     4     5    1
    25     5     6    1
    26    19    13   ar
    27     6     1    1
    28    27    21   ar
    29     8    10    1
@<TRIPOS>MOLECULE
*****
 27 29 0 0 0
SMALL
GASTEIGER

@<TRIPOS>ATOM
      1 N         138.8603  143.6595  163.6112 N.3     1  UNL1       -0.2682
      2 C         139.4875  143.7290  164.9721 C.3     1  UNL1        0.0897
      3 C         139.6178  142.4865  165.8022 C.3     1  UNL1        0.0899
      4 N         139.1210  141.1744  165.2715 N.3     1  UNL1       -0.2665
      5 C         138.4939  141.1048  163.9107 C.3     1  UNL1        0.0899
      6 C         138.3636  142.3474  163.0805 C.3     1  UNL1        0.0897
      7 C         138.7300  144.9020  162.7811 C.3     1  UNL1        0.1056
      8 O         140.0065  147.0517  162.0745 O.3     1  UNL1       -0.3793
      9 C         139.9549  145.5594  162.2178 C.3     1  UNL1        0.1700
     10 H         140.8618  147.3109  161.6975 H       1  UNL1        0.2106
     11 C         141.1283  144.7246  161.7977 C.3     1  UNL1        0.2358
     12 O         142.3952  144.7539  162.6001 O.3     1  UNL1       -0.4728
     13 C         142.9387  143.4865  163.1903 C.ar    1  UNL1        0.1388
     14 C         144.2420  143.5033  163.9325 C.ar    1  UNL1        0.0392
     15 C         144.7854  142.2359  164.5227 C.ar    1  UNL1        0.0327
     16 C         144.0255  140.9516  164.3707 C.ar    1  UNL1        0.1403
     17 F         144.5689  139.6842  164.9609 F       1  UNL1       -0.2042
     18 C         142.7221  140.9348  163.6285 C.ar    1  UNL1        0.0327
     19 C         142.1787  142.2022  163.0383 C.ar    1  UNL1        0.0392
     20 C         139.2513  139.9319  166.1016 C.3     1  UNL1        0.0992
     21 C         140.2054  139.8995  167.2587 C.ar    1  UNL1       -0.0061
     22 C         139.6939  140.0763  168.6577 C.ar    1  UNL1       -0.0021
     23 C         140.6478  140.0440  169.8147 C.ar    1  UNL1        0.0111
     24 C         142.1134  139.8349  169.5729 C.ar    1  UNL1        0.0577
     25 CL        143.0674  139.8025  170.7299 Cl      1  UNL1       -0.0822
     26 C         142.6249  139.6581  168.1739 C.ar    1  UNL1        0.0111
     27 C         141.6709  139.6904  167.0168 C.ar    1  UNL1       -0.0021
@<TRIPOS>BOND
     1     9     8    1
     2     9    11    1
     3    11    12    1
     4    12    13    1
     5    13    14   ar
     6    14    15   ar
     7    15    16   ar
     8    16    17    1
     9    16    18   ar
    10    18    19   ar
    11     9     7    1
    12     7     1    1
    13     1     2    1
    14     2     3    1
    15     3     4    1
    16     4    20    1
    17    20    21    1
    18    21    22   ar
    19    22    23   ar
    20    23    24   ar
    21    24    25    1
    22    24    26   ar
    23    26    27   ar
    24     4     5    1
    25     5     6    1
    26    19    13   ar
    27     6     1    1
    28    27    21   ar
    29     8    10    1
@<TRIPOS>MOLECULE
*****
 27 29 0 0 0
SMALL
GASTEIGER

@<TRIPOS>ATOM
      1 N         140.2079  142.3422  161.3066 N.3     1  UNL1       -0.2682
      2 C         141.4657  141.5975  161.6434 C.3     1  UNL1        0.0897
      3 C         141.4406  140.5128  162.6790 C.3     1  UNL1        0.0899
      4 N         140.1577  140.1726  163.3780 N.3     1  UNL1       -0.2665
      5 C         138.8999  140.9173  163.0412 C.3     1  UNL1        0.0899
      6 C         138.9250  142.0021  162.0055 C.3     1  UNL1        0.0897
      7 C         140.2330  143.4270  160.2710 C.3     1  UNL1        0.1056
      8 O         141.9956  145.3207  160.0328 O.3     1  UNL1       -0.3793
      9 C         140.7241  144.7975  160.6322 C.3     1  UNL1        0.1700
     10 H         142.1678  146.2142  160.3689 H       1  UNL1        0.2106
     11 C         139.9436  145.6448  161.5929 C.3     1  UNL1        0.2358
     12 O         140.5355  146.0114  162.9215 O.3     1  UNL1       -0.4728
     13 C         141.3408  145.0040  163.6875 C.ar    1  UNL1        0.1388
     14 C         142.8373  145.0061  163.5855 C.ar    1  UNL1        0.0392
     15 C         143.6426  143.9987  164.3515 C.ar    1  UNL1        0.0327
     16 C         142.9513  142.9893  165.2194 C.ar    1  UNL1        0.1403
     17 F         143.7566  141.9818  165.9853 F       1  UNL1       -0.2042
     18 C         141.4548  142.9872  165.3213 C.ar    1  UNL1        0.0327
     19 C         140.6496  143.9946  164.5554 C.ar    1  UNL1        0.0392
     20 C         140.1326  139.0879  164.4136 C.3     1  UNL1        0.0992
     21 C         140.4549  139.4081  165.8432 C.ar    1  UNL1       -0.0061
     22 C         139.3620  139.8212  166.7839 C.ar    1  UNL1       -0.0021
     23 C         139.6842  140.1415  168.2135 C.ar    1  UNL1        0.0111
     24 C         141.0993  140.0487  168.7023 C.ar    1  UNL1        0.0577
     25 CL        141.4215  140.3689  170.1318 Cl      1  UNL1       -0.0822
     26 C         142.1922  139.6356  167.7616 C.ar    1  UNL1        0.0111
     27 C         141.8699  139.3153  166.3320 C.ar    1  UNL1       -0.0021
@<TRIPOS>BOND
     1     9     8    1
     2     9    11    1
     3    11    12    1
     4    12    13    1
     5    13    14   ar
     6    14    15   ar
     7    15    16   ar
     8    16    17    1
     9    16    18   ar
    10    18    19   ar
    11     9     7    1
    12     7     1    1
    13     1     2    1
    14     2     3    1
    15     3     4    1
    16     4    20    1
    17    20    21    1
    18    21    22   ar
    19    22    23   ar
    20    23    24   ar
    21    24    25    1
    22    24    26   ar
    23    26    27   ar
    24     4     5    1
    25     5     6    1
    26    19    13   ar
    27     6     1    1
    28    27    21   ar
    29     8    10    1
