@<TRIPOS>MOLECULE
*****
 22 24 0 0 0
SMALL
GASTEIGER

@<TRIPOS>ATOM
      1 O         143.9594  138.0148  166.9620 O.2     1  UNL1       -0.2699
      2 C         142.9219  138.7853  166.2005 C.2     1  UNL1        0.2498
      3 N         142.2175  139.9391  166.8503 N.am    1  UNL1       -0.2779
      4 C         142.5889  138.4019  164.7890 C.ar    1  UNL1        0.0650
      5 C         141.3625  137.5872  164.5026 C.ar    1  UNL1        0.0054
      6 C         141.0294  137.2038  163.0913 C.ar    1  UNL1        0.0011
      7 C         141.9229  137.6351  161.9662 C.ar    1  UNL1        0.0123
      8 C         143.1493  138.4498  162.2526 C.ar    1  UNL1        0.0683
      9 CL        144.0428  138.8811  161.1275 Cl      1  UNL1       -0.0814
     10 C         143.4824  138.8332  163.6640 C.ar    1  UNL1        0.0725
     11 CL        144.7088  139.6479  163.9504 Cl      1  UNL1       -0.0812
     12 C         141.1801  140.7097  166.0888 C.3     1  UNL1        0.0926
     13 C         139.6961  140.5055  166.1671 C.3     1  UNL1        0.0383
     14 C         139.0433  141.4893  165.2419 C.3     1  UNL1        0.0704
     15 N         140.1238  142.3015  164.5917 N.3     1  UNL1       -0.2960
     16 C         141.4444  141.8197  165.1151 C.3     1  UNL1        0.0887
     17 H         140.0001  143.2880  164.8199 H       1  UNL1        0.1233
     18 C         142.5505  140.3225  168.2618 C.3     1  UNL1        0.0756
     19 C         143.1138  141.6392  168.7082 C.3     1  UNL1        0.0198
     20 C         143.2901  141.5870  170.1969 C.3     1  UNL1        0.0018
     21 C         142.8359  140.2381  170.6705 C.3     1  UNL1        0.0018
     22 C         142.3788  139.4567  169.4745 C.3     1  UNL1        0.0198
@<TRIPOS>BOND
     1     1     2    2
     2     2     4    1
     3     4     5   ar
     4     5     6   ar
     5     6     7   ar
     6     7     8   ar
     7     8     9    1
     8     8    10   ar
     9    10    11    1
    10     2     3   am
    11     3    18    1
    12    18    19    1
    13    19    20    1
    14    20    21    1
    15    21    22    1
    16    12     3    1
    17    12    13    1
    18    13    14    1
    19    14    15    1
    20    15    16    1
    21    10     4   ar
    22    22    18    1
    23    16    12    1
    24    15    17    1
@<TRIPOS>MOLECULE
*****
 22 24 0 0 0
SMALL
GASTEIGER

@<TRIPOS>ATOM
      1 O         142.5390  139.4927  167.6538 O.2     1  UNL1       -0.2699
      2 C         141.5919  139.7647  166.5229 C.2     1  UNL1        0.2498
      3 N         140.4501  140.7186  166.7138 N.am    1  UNL1       -0.2779
      4 C         141.7865  139.0828  165.2011 C.ar    1  UNL1        0.0650
      5 C         140.9977  137.8508  164.8695 C.ar    1  UNL1        0.0054
      6 C         141.1923  137.1689  163.5477 C.ar    1  UNL1        0.0011
      7 C         142.1757  137.7190  162.5576 C.ar    1  UNL1        0.0123
      8 C         142.9644  138.9510  162.8892 C.ar    1  UNL1        0.0683
      9 CL        143.9478  139.5011  161.8990 Cl      1  UNL1       -0.0814
     10 C         142.7698  139.6329  164.2110 C.ar    1  UNL1        0.0725
     11 CL        143.5586  140.8649  164.5426 Cl      1  UNL1       -0.0812
     12 C         139.5029  140.9906  165.5830 C.3     1  UNL1        0.0926
     13 C         139.6548  142.0616  164.5438 C.3     1  UNL1        0.0383
     14 C         138.4833  141.9723  163.6113 C.3     1  UNL1        0.0704
     15 N         137.6073  140.8460  164.0741 N.3     1  UNL1       -0.2960
     16 C         138.2375  140.2393  165.2927 C.3     1  UNL1        0.0887
     17 H         137.5292  140.1436  163.3387 H       1  UNL1        0.1233
     18 C         140.2555  141.4005  168.0357 C.3     1  UNL1        0.0756
     19 C         139.6250  140.7960  169.2552 C.3     1  UNL1        0.0198
     20 C         139.6370  141.8285  170.3433 C.3     1  UNL1        0.0018
     21 C         140.2749  143.0711  169.7962 C.3     1  UNL1        0.0018
     22 C         140.6571  142.8065  168.3700 C.3     1  UNL1        0.0198
@<TRIPOS>BOND
     1     1     2    2
     2     2     4    1
     3     4     5   ar
     4     5     6   ar
     5     6     7   ar
     6     7     8   ar
     7     8     9    1
     8     8    10   ar
     9    10    11    1
    10     2     3   am
    11     3    18    1
    12    18    19    1
    13    19    20    1
    14    20    21    1
    15    21    22    1
    16    12     3    1
    17    12    13    1
    18    13    14    1
    19    14    15    1
    20    15    16    1
    21    10     4   ar
    22    22    18    1
    23    16    12    1
    24    15    17    1
@<TRIPOS>MOLECULE
*****
 22 24 0 0 0
SMALL
GASTEIGER

@<TRIPOS>ATOM
      1 O         139.2741  139.7837  167.9216 O.2     1  UNL1       -0.2699
      2 C         140.1281  139.7232  166.6899 C.2     1  UNL1        0.2498
      3 N         141.5953  140.0218  166.7791 N.am    1  UNL1       -0.2779
      4 C         139.5147  139.3640  165.3690 C.ar    1  UNL1        0.0650
      5 C         139.6173  137.9599  164.8515 C.ar    1  UNL1        0.0054
      6 C         139.0039  137.6007  163.5306 C.ar    1  UNL1        0.0011
      7 C         138.2881  138.6456  162.7272 C.ar    1  UNL1        0.0123
      8 C         138.1856  140.0498  163.2447 C.ar    1  UNL1        0.0683
      9 CL        137.4697  141.0948  162.4412 Cl      1  UNL1       -0.0814
     10 C         138.7989  140.4090  164.5655 C.ar    1  UNL1        0.0725
     11 CL        138.6964  141.8132  165.0830 Cl      1  UNL1       -0.0812
     12 C         142.4493  139.9613  165.5474 C.3     1  UNL1        0.0926
     13 C         143.2642  138.7855  165.0964 C.3     1  UNL1        0.0383
     14 C         143.9568  139.1635  163.8207 C.3     1  UNL1        0.0704
     15 N         143.5700  140.5730  163.4833 N.3     1  UNL1       -0.2960
     16 C         142.6383  141.0660  164.5505 C.3     1  UNL1        0.0887
     17 H         143.1018  140.5960  162.5774 H       1  UNL1        0.1233
     18 C         142.2087  140.3810  168.1001 C.3     1  UNL1        0.0756
     19 C         142.3352  139.4749  169.2888 C.3     1  UNL1        0.0198
     20 C         143.0079  140.2432  170.3877 C.3     1  UNL1        0.0018
     21 C         143.2971  141.6240  169.8779 C.3     1  UNL1        0.0018
     22 C         142.8032  141.7092  168.4642 C.3     1  UNL1        0.0198
@<TRIPOS>BOND
     1     1     2    2
     2     2     4    1
     3     4     5   ar
     4     5     6   ar
     5     6     7   ar
     6     7     8   ar
     7     8     9    1
     8     8    10   ar
     9    10    11    1
    10     2     3   am
    11     3    18    1
    12    18    19    1
    13    19    20    1
    14    20    21    1
    15    21    22    1
    16    12     3    1
    17    12    13    1
    18    13    14    1
    19    14    15    1
    20    15    16    1
    21    10     4   ar
    22    22    18    1
    23    16    12    1
    24    15    17    1
@<TRIPOS>MOLECULE
*****
 22 24 0 0 0
SMALL
GASTEIGER

@<TRIPOS>ATOM
      1 O         137.8987  138.8077  167.0350 O.2     1  UNL1       -0.2699
      2 C         138.7419  139.7111  166.1848 C.2     1  UNL1        0.2498
      3 N         139.9349  140.4006  166.7774 N.am    1  UNL1       -0.2779
      4 C         138.3920  139.9250  164.7419 C.ar    1  UNL1        0.0650
      5 C         137.7038  141.1880  164.3163 C.ar    1  UNL1        0.0054
      6 C         137.3539  141.4019  162.8735 C.ar    1  UNL1        0.0011
      7 C         137.6922  140.3528  161.8562 C.ar    1  UNL1        0.0123
      8 C         138.3804  139.0897  162.2818 C.ar    1  UNL1        0.0683
      9 CL        138.7187  138.0406  161.2645 Cl      1  UNL1       -0.0814
     10 C         138.7303  138.8758  163.7246 C.ar    1  UNL1        0.0725
     11 CL        139.4184  137.6128  164.1502 Cl      1  UNL1       -0.0812
     12 C         140.7782  141.3039  165.9271 C.3     1  UNL1        0.0926
     13 C         140.6651  142.7975  165.8464 C.3     1  UNL1        0.0383
     14 C         141.6996  143.2890  164.8777 C.3     1  UNL1        0.0704
     15 N         142.4520  142.0992  164.3597 N.3     1  UNL1       -0.2960
     16 C         141.8825  140.8724  165.0083 C.3     1  UNL1        0.0887
     17 H         143.4410  142.1867  164.5931 H       1  UNL1        0.1233
     18 C         140.2848  140.1867  168.2203 C.3     1  UNL1        0.0756
     19 C         139.3929  140.4634  169.3941 C.3     1  UNL1        0.0198
     20 C         140.1448  140.1063  170.6420 C.3     1  UNL1        0.0018
     21 C         141.5015  139.6089  170.2393 C.3     1  UNL1        0.0018
     22 C         141.5880  139.6586  168.7426 C.3     1  UNL1        0.0198
@<TRIPOS>BOND
     1     1     2    2
     2     2     4    1
     3     4     5   ar
     4     5     6   ar
     5     6     7   ar
     6     7     8   ar
     7     8     9    1
     8     8    10   ar
     9    10    11    1
    10     2     3   am
    11     3    18    1
    12    18    19    1
    13    19    20    1
    14    20    21    1
    15    21    22    1
    16    12     3    1
    17    12    13    1
    18    13    14    1
    19    14    15    1
    20    15    16    1
    21    10     4   ar
    22    22    18    1
    23    16    12    1
    24    15    17    1
@<TRIPOS>MOLECULE
*****
 22 24 0 0 0
SMALL
GASTEIGER

@<TRIPOS>ATOM
      1 O         139.5753  139.7006  167.9291 O.2     1  UNL1       -0.2699
      2 C         140.3605  140.0837  166.7098 C.2     1  UNL1        0.2498
      3 N         141.2544  141.2878  166.7412 N.am    1  UNL1       -0.2779
      4 C         140.2517  139.2627  165.4591 C.ar    1  UNL1        0.0650
      5 C         141.2520  138.1793  165.1838 C.ar    1  UNL1        0.0054
      6 C         141.1433  137.3584  163.9332 C.ar    1  UNL1        0.0011
      7 C         140.0343  137.6207  162.9579 C.ar    1  UNL1        0.0123
      8 C         139.0340  138.7041  163.2332 C.ar    1  UNL1        0.0683
      9 CL        137.9250  138.9664  162.2578 Cl      1  UNL1       -0.0814
     10 C         139.1427  139.5251  164.4838 C.ar    1  UNL1        0.0725
     11 CL        138.1425  140.6084  164.7591 Cl      1  UNL1       -0.0812
     12 C         142.0396  141.6710  165.5219 C.3     1  UNL1        0.0926
     13 C         143.4419  141.2426  165.2057 C.3     1  UNL1        0.0383
     14 C         143.8293  141.8567  163.8931 C.3     1  UNL1        0.0704
     15 N         142.6664  142.6645  163.3981 N.3     1  UNL1       -0.2960
     16 C         141.5603  142.5498  164.4048 C.3     1  UNL1        0.0887
     17 H         142.3531  142.3040  162.4969 H       1  UNL1        0.1233
     18 C         141.3631  142.1088  167.9919 C.3     1  UNL1        0.0756
     19 C         142.5176  142.1077  168.9496 C.3     1  UNL1        0.0198
     20 C         142.2045  143.0733  170.0541 C.3     1  UNL1        0.0018
     21 C         140.8565  143.6711  169.7789 C.3     1  UNL1        0.0018
     22 C         140.3366  143.0750  168.5044 C.3     1  UNL1        0.0198
@<TRIPOS>BOND
     1     1     2    2
     2     2     4    1
     3     4     5   ar
     4     5     6   ar
     5     6     7   ar
     6     7     8   ar
     7     8     9    1
     8     8    10   ar
     9    10    11    1
    10     2     3   am
    11     3    18    1
    12    18    19    1
    13    19    20    1
    14    20    21    1
    15    21    22    1
    16    12     3    1
    17    12    13    1
    18    13    14    1
    19    14    15    1
    20    15    16    1
    21    10     4   ar
    22    22    18    1
    23    16    12    1
    24    15    17    1
@<TRIPOS>MOLECULE
*****
 22 24 0 0 0
SMALL
GASTEIGER

@<TRIPOS>ATOM
      1 O         143.5977  142.5799  167.7764 O.2     1  UNL1       -0.2699
      2 C         142.7024  142.6365  166.5742 C.2     1  UNL1        0.2498
      3 N         141.2176  142.4999  166.7376 N.am    1  UNL1       -0.2779
      4 C         143.2920  142.8297  165.2085 C.ar    1  UNL1        0.0650
      5 C         143.4248  144.2104  164.6374 C.ar    1  UNL1        0.0054
      6 C         144.0144  144.4036  163.2717 C.ar    1  UNL1        0.0011
      7 C         144.4711  143.2162  162.4772 C.ar    1  UNL1        0.0123
      8 C         144.3383  141.8355  163.0482 C.ar    1  UNL1        0.0683
      9 CL        144.7950  140.6481  162.2536 Cl      1  UNL1       -0.0814
     10 C         143.7487  141.6423  164.4139 C.ar    1  UNL1        0.0725
     11 CL        143.6159  140.2616  164.9849 Cl      1  UNL1       -0.0812
     12 C         140.3224  142.5565  165.5354 C.3     1  UNL1        0.0926
     13 C         139.6549  143.7842  164.9902 C.3     1  UNL1        0.0383
     14 C         138.8574  143.3818  163.7852 C.3     1  UNL1        0.0704
     15 N         139.0320  141.9054  163.5856 N.3     1  UNL1       -0.2960
     16 C         139.9374  141.3954  164.6674 C.3     1  UNL1        0.0887
     17 H         139.4491  141.7265  162.6722 H       1  UNL1        0.1233
     18 C         140.6281  142.3067  168.1034 C.3     1  UNL1        0.0756
     19 C         140.4791  143.3640  169.1569 C.3     1  UNL1        0.0198
     20 C         139.8429  142.7331  170.3600 C.3     1  UNL1        0.0018
     21 C         139.5988  141.2859  170.0499 C.3     1  UNL1        0.0018
     22 C         140.0840  141.0224  168.6552 C.3     1  UNL1        0.0198
@<TRIPOS>BOND
     1     1     2    2
     2     2     4    1
     3     4     5   ar
     4     5     6   ar
     5     6     7   ar
     6     7     8   ar
     7     8     9    1
     8     8    10   ar
     9    10    11    1
    10     2     3   am
    11     3    18    1
    12    18    19    1
    13    19    20    1
    14    20    21    1
    15    21    22    1
    16    12     3    1
    17    12    13    1
    18    13    14    1
    19    14    15    1
    20    15    16    1
    21    10     4   ar
    22    22    18    1
    23    16    12    1
    24    15    17    1
@<TRIPOS>MOLECULE
*****
 22 24 0 0 0
SMALL
GASTEIGER

@<TRIPOS>ATOM
      1 O         142.9805  139.2531  167.9049 O.2     1  UNL1       -0.2699
      2 C         142.8546  140.1232  166.6895 C.2     1  UNL1        0.2498
      3 N         142.5677  141.5875  166.8420 N.am    1  UNL1       -0.2779
      4 C         143.0155  139.5288  165.3217 C.ar    1  UNL1        0.0650
      5 C         144.3078  139.6960  164.5786 C.ar    1  UNL1        0.0054
      6 C         144.4687  139.1017  163.2109 C.ar    1  UNL1        0.0011
      7 C         143.3374  138.3403  162.5861 C.ar    1  UNL1        0.0123
      8 C         142.0451  138.1731  163.3292 C.ar    1  UNL1        0.0683
      9 CL        140.9138  137.4117  162.7044 Cl      1  UNL1       -0.0814
     10 C         141.8842  138.7674  164.6969 C.ar    1  UNL1        0.0725
     11 CL        140.5919  138.6003  165.4400 Cl      1  UNL1       -0.0812
     12 C         142.4418  142.4576  165.6267 C.3     1  UNL1        0.0926
     13 C         143.5377  143.2759  165.0107 C.3     1  UNL1        0.0383
     14 C         142.9711  143.9862  163.8172 C.3     1  UNL1        0.0704
     15 N         141.5249  143.6070  163.6956 N.3     1  UNL1       -0.2960
     16 C         141.1978  142.6623  164.8139 C.3     1  UNL1        0.0887
     17 H         141.3609  143.1510  162.7981 H       1  UNL1        0.1233
     18 C         142.4068  142.1819  168.2098 C.3     1  UNL1        0.0756
     19 C         141.1306  142.7058  168.7989 C.3     1  UNL1        0.0198
     20 C         141.4289  143.2043  170.1819 C.3     1  UNL1        0.0018
     21 C         142.8894  142.9885  170.4475 C.3     1  UNL1        0.0018
     22 C         143.4937  142.3566  169.2287 C.3     1  UNL1        0.0198
@<TRIPOS>BOND
     1     1     2    2
     2     2     4    1
     3     4     5   ar
     4     5     6   ar
     5     6     7   ar
     6     7     8   ar
     7     8     9    1
     8     8    10   ar
     9    10    11    1
    10     2     3   am
    11     3    18    1
    12    18    19    1
    13    19    20    1
    14    20    21    1
    15    21    22    1
    16    12     3    1
    17    12    13    1
    18    13    14    1
    19    14    15    1
    20    15    16    1
    21    10     4   ar
    22    22    18    1
    23    16    12    1
    24    15    17    1
@<TRIPOS>MOLECULE
*****
 22 24 0 0 0
SMALL
GASTEIGER

@<TRIPOS>ATOM
      1 O         142.3920  138.7232  166.6680 O.2     1  UNL1       -0.2699
      2 C         142.1239  139.7041  165.5652 C.2     1  UNL1        0.2498
      3 N         140.7367  139.8523  165.0142 N.am    1  UNL1       -0.2779
      4 C         143.2430  140.5367  165.0136 C.ar    1  UNL1        0.0650
      5 C         144.0970  140.0034  163.9017 C.ar    1  UNL1        0.0054
      6 C         145.2161  140.8359  163.3500 C.ar    1  UNL1        0.0011
      7 C         145.4813  142.2018  163.9102 C.ar    1  UNL1        0.0123
      8 C         144.6273  142.7352  165.0221 C.ar    1  UNL1        0.0683
      9 CL        144.8925  144.1012  165.5824 Cl      1  UNL1       -0.0814
     10 C         143.5082  141.9026  165.5738 C.ar    1  UNL1        0.0725
     11 CL        142.6542  142.4360  166.6857 Cl      1  UNL1       -0.0812
     12 C         140.4686  140.8332  163.9114 C.3     1  UNL1        0.0926
     13 C         140.6166  140.5701  162.4421 C.3     1  UNL1        0.0383
     14 C         140.2449  141.8236  161.7070 C.3     1  UNL1        0.0704
     15 N         139.8671  142.8615  162.7219 N.3     1  UNL1       -0.2960
     16 C         140.0054  142.2493  164.0844 C.3     1  UNL1        0.0887
     17 H         138.9027  143.1576  162.5718 H       1  UNL1        0.1233
     18 C         139.6176  139.0196  165.5658 C.3     1  UNL1        0.0756
     19 C         138.6711  139.4260  166.6563 C.3     1  UNL1        0.0198
     20 C         137.7170  138.2920  166.8884 C.3     1  UNL1        0.0018
     21 C         138.0738  137.1849  165.9412 C.3     1  UNL1        0.0018
     22 C         139.2484  137.6346  165.1239 C.3     1  UNL1        0.0198
@<TRIPOS>BOND
     1     1     2    2
     2     2     4    1
     3     4     5   ar
     4     5     6   ar
     5     6     7   ar
     6     7     8   ar
     7     8     9    1
     8     8    10   ar
     9    10    11    1
    10     2     3   am
    11     3    18    1
    12    18    19    1
    13    19    20    1
    14    20    21    1
    15    21    22    1
    16    12     3    1
    17    12    13    1
    18    13    14    1
    19    14    15    1
    20    15    16    1
    21    10     4   ar
    22    22    18    1
    23    16    12    1
    24    15    17    1
@<TRIPOS>MOLECULE
*****
 22 24 0 0 0
SMALL
GASTEIGER

@<TRIPOS>ATOM
      1 O         139.5672  139.9653  168.0785 O.2     1  UNL1       -0.2699
      2 C         140.0262  140.6029  166.8007 C.2     1  UNL1        0.2498
      3 N         140.8619  141.8479  166.8418 N.am    1  UNL1       -0.2779
      4 C         139.6495  139.9956  165.4818 C.ar    1  UNL1        0.0650
      5 C         138.3988  140.4384  164.7821 C.ar    1  UNL1        0.0054
      6 C         138.0221  139.8311  163.4633 C.ar    1  UNL1        0.0011
      7 C         138.8961  138.7811  162.8442 C.ar    1  UNL1        0.0123
      8 C         140.1469  138.3382  163.5439 C.ar    1  UNL1        0.0683
      9 CL        141.0209  137.2881  162.9248 Cl      1  UNL1       -0.0814
     10 C         140.5236  138.9455  164.8627 C.ar    1  UNL1        0.0725
     11 CL        141.7743  138.5027  165.5624 Cl      1  UNL1       -0.0812
     12 C         141.3209  142.4855  165.5640 C.3     1  UNL1        0.0926
     13 C         140.5950  143.5538  164.8013 C.3     1  UNL1        0.0383
     14 C         141.4119  143.8954  163.5905 C.3     1  UNL1        0.0704
     15 N         142.6428  143.0382  163.6049 N.3     1  UNL1       -0.2960
     16 C         142.5865  142.1669  164.8246 C.3     1  UNL1        0.0887
     17 H         143.4746  143.6275  163.6386 H       1  UNL1        0.1233
     18 C         141.2386  142.4552  168.1607 C.3     1  UNL1        0.0756
     19 C         140.3699  143.3412  169.0034 C.3     1  UNL1        0.0198
     20 C         141.1444  143.7168  170.2319 C.3     1  UNL1        0.0018
     21 C         142.4918  143.0628  170.1483 C.3     1  UNL1        0.0018
     22 C         142.5500  142.2831  168.8682 C.3     1  UNL1        0.0198
@<TRIPOS>BOND
     1     1     2    2
     2     2     4    1
     3     4     5   ar
     4     5     6   ar
     5     6     7   ar
     6     7     8   ar
     7     8     9    1
     8     8    10   ar
     9    10    11    1
    10     2     3   am
    11     3    18    1
    12    18    19    1
    13    19    20    1
    14    20    21    1
    15    21    22    1
    16    12     3    1
    17    12    13    1
    18    13    14    1
    19    14    15    1
    20    15    16    1
    21    10     4   ar
    22    22    18    1
    23    16    12    1
    24    15    17    1
