@<TRIPOS>MOLECULE
*****
 42 46 0 0 0
SMALL
GASTEIGER

@<TRIPOS>ATOM
      1 C         141.1022  140.4994  158.8749 C.3     1  UNL1        0.0621
      2 C         140.2899  140.9310  160.0599 C.3     1  UNL1        0.0998
      3 N         141.0608  142.2163  160.1201 N.am    1  UNL1       -0.2741
      4 C         141.0315  143.4304  161.0005 C.2     1  UNL1        0.2669
      5 O         141.9862  144.5603  160.7520 O.2     1  UNL1       -0.2683
      6 C         141.8729  141.7848  158.9352 C.3     1  UNL1        0.0998
      7 C         141.1900  136.8572  156.2336 C.ar    1  UNL1        0.1727
      8 C         142.4661  137.3994  156.8062 C.ar    1  UNL1        0.0397
      9 C         142.4368  138.6134  157.6866 C.ar    1  UNL1       -0.0009
     10 C         141.1314  139.2853  157.9945 C.ar    1  UNL1       -0.0160
     11 C         139.8555  138.7432  157.4219 C.ar    1  UNL1        0.0359
     12 C         139.8848  137.5291  156.5414 C.ar    1  UNL1        0.1721
     13 O         138.6088  136.9869  155.9689 O.3     1  UNL1       -0.4684
     14 C         138.0716  137.5366  154.6807 C.3     1  UNL1        0.2526
     15 O         141.2193  135.6431  155.3531 O.3     1  UNL1       -0.4676
     16 C         142.5327  135.0568  154.9276 C.3     1  UNL1        0.2321
     17 C         144.3431  131.6622  157.2619 C.ar    1  UNL1       -0.0222
     18 C         143.6710  131.3944  155.9480 C.ar    1  UNL1       -0.0045
     19 C         143.0675  132.5259  155.1699 C.ar    1  UNL1       -0.0010
     20 C         143.1362  133.9252  155.7057 C.ar    1  UNL1        0.0211
     21 C         143.8083  134.1930  157.0196 C.ar    1  UNL1       -0.0010
     22 C         144.4118  133.0615  157.7977 C.ar    1  UNL1       -0.0045
     23 C         144.0774  129.4124  158.5338 C.3     1  UNL1        0.0050
     24 C         144.9466  130.5306  158.0400 C.3     1  UNL1        0.0264
     25 C         140.0474  143.5145  162.1295 C.ar    1  UNL1        0.1377
     26 C         140.4063  142.9680  163.4795 C.ar    1  UNL1        0.0606
     27 C         139.4223  143.0521  164.6085 C.ar    1  UNL1        0.1418
     28 C         138.0793  143.6828  164.3875 C.ar    1  UNL1        0.0576
     29 C         137.7205  144.2293  163.0374 C.ar    1  UNL1        0.1021
     30 N         138.7045  144.1452  161.9085 N.ar    1  UNL1       -0.2390
     31 O         139.7812  142.5056  165.9585 O.3     1  UNL1       -0.4739
     32 C         139.5328  141.0601  166.2727 C.3     1  UNL1        0.2227
     33 C         138.5411  140.2766  165.4649 C.3     1  UNL1        0.1202
     34 N         139.0172  139.3553  164.3812 N.3     1  UNL1       -0.2653
     35 C         140.1934  138.4281  164.4659 C.3     1  UNL1        0.1044
     36 C         140.3038  137.6992  163.1596 C.3     1  UNL1        0.1544
     37 O         141.3402  136.6736  162.8071 O.3     1  UNL1       -0.3805
     38 C         139.1960  138.1758  162.2677 C.3     1  UNL1        0.1544
     39 O         138.9301  137.7105  160.8666 O.3     1  UNL1       -0.3805
     40 C         138.4009  139.1993  163.0226 C.3     1  UNL1        0.1044
     41 H         141.9394  136.5476  163.5595 H       1  UNL1        0.2105
     42 H         139.5899  137.0449  160.6163 H       1  UNL1        0.2105
@<TRIPOS>BOND
     1    23    24    1
     2    24    17    1
     3    17    18   ar
     4    18    19   ar
     5    19    20   ar
     6    20    16    1
     7    16    15    1
     8    15     7    1
     9     7     8   ar
    10     8     9   ar
    11     9    10   ar
    12    10     1    1
    13     1     2    1
    14     2     3    1
    15     3     4   am
    16     4     5    2
    17     4    25    1
    18    25    26   ar
    19    26    27   ar
    20    27    31    1
    21    31    32    1
    22    32    33    1
    23    33    34    1
    24    34    35    1
    25    35    36    1
    26    36    37    1
    27    36    38    1
    28    38    39    1
    29    38    40    1
    30    27    28   ar
    31    28    29   ar
    32    29    30   ar
    33     3     6    1
    34    10    11   ar
    35    11    12   ar
    36    12    13    1
    37    13    14    1
    38    20    21   ar
    39    21    22   ar
    40    22    17   ar
    41    12     7   ar
    42     6     1    1
    43    30    25   ar
    44    40    34    1
    45    37    41    1
    46    39    42    1
@<TRIPOS>MOLECULE
*****
 42 46 0 0 0
SMALL
GASTEIGER

@<TRIPOS>ATOM
      1 C         141.1112  140.3973  158.7449 C.3     1  UNL1        0.0621
      2 C         140.3808  140.8939  159.9573 C.3     1  UNL1        0.0998
      3 N         141.1090  142.2017  159.8602 N.am    1  UNL1       -0.2741
      4 C         141.1074  143.4777  160.6488 C.2     1  UNL1        0.2669
      5 O         141.9997  144.6124  160.2412 O.2     1  UNL1       -0.2683
      6 C         141.8393  141.7051  158.6478 C.3     1  UNL1        0.0998
      7 C         141.1159  136.5694  156.3790 C.ar    1  UNL1        0.1727
      8 C         142.3757  137.0435  157.0410 C.ar    1  UNL1        0.0397
      9 C         142.3742  138.3195  157.8296 C.ar    1  UNL1       -0.0009
     10 C         141.1128  139.1213  157.9563 C.ar    1  UNL1       -0.0160
     11 C         139.8530  138.6471  157.2944 C.ar    1  UNL1        0.0359
     12 C         139.8546  137.3712  156.5058 C.ar    1  UNL1        0.1721
     13 O         138.5948  136.8970  155.8439 O.3     1  UNL1       -0.4684
     14 C         138.0162  137.6669  154.6938 C.3     1  UNL1        0.2526
     15 O         141.1175  135.2934  155.5904 O.3     1  UNL1       -0.4676
     16 C         142.4170  134.6684  155.1777 C.3     1  UNL1        0.2321
     17 C         144.0920  131.2073  157.5155 C.ar    1  UNL1       -0.0222
     18 C         144.6925  132.5738  157.6645 C.ar    1  UNL1       -0.0045
     19 C         144.1342  133.7274  156.8853 C.ar    1  UNL1       -0.0010
     20 C         142.9754  133.5147  155.9570 C.ar    1  UNL1        0.0211
     21 C         142.3748  132.1483  155.8080 C.ar    1  UNL1       -0.0010
     22 C         142.9331  130.9946  156.5873 C.ar    1  UNL1       -0.0045
     23 C         143.7303  129.0031  158.8423 C.3     1  UNL1        0.0050
     24 C         144.6503  130.0537  158.2948 C.3     1  UNL1        0.0264
     25 C         140.2134  143.6189  161.8450 C.ar    1  UNL1        0.1377
     26 C         140.7687  143.4190  163.2240 C.ar    1  UNL1        0.0606
     27 C         139.8747  143.5602  164.4203 C.ar    1  UNL1        0.1418
     28 C         138.4255  143.9014  164.2374 C.ar    1  UNL1        0.0576
     29 C         137.8703  144.1013  162.8583 C.ar    1  UNL1        0.1021
     30 N         138.7642  143.9601  161.6622 N.ar    1  UNL1       -0.2390
     31 O         140.4299  143.3603  165.7993 O.3     1  UNL1       -0.4739
     32 C         141.7141  142.6088  165.9891 C.3     1  UNL1        0.2227
     33 C         141.7671  141.4392  166.9267 C.3     1  UNL1        0.1202
     34 N         140.9004  141.4194  168.1508 N.3     1  UNL1       -0.2653
     35 C         139.9409  140.3319  168.5343 C.3     1  UNL1        0.1044
     36 C         139.2886  140.7240  169.8268 C.3     1  UNL1        0.1544
     37 O         138.2604  139.9263  170.5730 O.3     1  UNL1       -0.3805
     38 C         139.8447  142.0537  170.2421 C.3     1  UNL1        0.1544
     39 O         139.4703  142.8193  171.4766 O.3     1  UNL1       -0.3805
     40 C         140.8408  142.4835  169.2063 C.3     1  UNL1        0.1044
     41 H         138.0751  139.1056  170.0904 H       1  UNL1        0.2105
     42 H         138.8048  142.3212  171.9764 H       1  UNL1        0.2105
@<TRIPOS>BOND
     1    23    24    1
     2    24    17    1
     3    17    18   ar
     4    18    19   ar
     5    19    20   ar
     6    20    16    1
     7    16    15    1
     8    15     7    1
     9     7     8   ar
    10     8     9   ar
    11     9    10   ar
    12    10     1    1
    13     1     2    1
    14     2     3    1
    15     3     4   am
    16     4     5    2
    17     4    25    1
    18    25    26   ar
    19    26    27   ar
    20    27    31    1
    21    31    32    1
    22    32    33    1
    23    33    34    1
    24    34    35    1
    25    35    36    1
    26    36    37    1
    27    36    38    1
    28    38    39    1
    29    38    40    1
    30    27    28   ar
    31    28    29   ar
    32    29    30   ar
    33     3     6    1
    34    10    11   ar
    35    11    12   ar
    36    12    13    1
    37    13    14    1
    38    20    21   ar
    39    21    22   ar
    40    22    17   ar
    41    12     7   ar
    42     6     1    1
    43    30    25   ar
    44    40    34    1
    45    37    41    1
    46    39    42    1
@<TRIPOS>MOLECULE
*****
 42 46 0 0 0
SMALL
GASTEIGER

@<TRIPOS>ATOM
      1 C         140.0821  139.8000  160.3008 C.3     1  UNL1        0.0621
      2 C         140.2395  139.7504  161.7917 C.3     1  UNL1        0.0998
      3 N         138.9355  140.4739  161.9534 N.am    1  UNL1       -0.2741
      4 C         138.1247  140.9505  163.1220 C.2     1  UNL1        0.2669
      5 O         136.8245  141.6621  162.8924 O.2     1  UNL1       -0.2683
      6 C         138.7781  140.5235  160.4626 C.3     1  UNL1        0.0998
      7 C         142.5144  138.3704  156.7950 C.ar    1  UNL1        0.1727
      8 C         141.0938  137.9166  156.9573 C.ar    1  UNL1        0.0397
      9 C         140.2831  138.3931  158.1258 C.ar    1  UNL1       -0.0009
     10 C         140.8928  139.3235  159.1322 C.ar    1  UNL1       -0.0160
     11 C         142.3133  139.7773  158.9700 C.ar    1  UNL1        0.0359
     12 C         143.1240  139.3007  157.8014 C.ar    1  UNL1        0.1721
     13 O         144.5445  139.7545  157.6391 O.3     1  UNL1       -0.4684
     14 C         144.8714  140.8724  156.6939 C.3     1  UNL1        0.2526
     15 O         143.3251  137.8939  155.6265 O.3     1  UNL1       -0.4676
     16 C         144.0574  136.5872  155.7047 C.3     1  UNL1        0.2321
     17 C         141.8400  132.7236  155.0672 C.ar    1  UNL1       -0.0222
     18 C         141.7942  133.7963  154.0198 C.ar    1  UNL1       -0.0045
     19 C         142.5333  135.0842  154.2323 C.ar    1  UNL1       -0.0010
     20 C         143.3183  135.2993  155.4922 C.ar    1  UNL1        0.0211
     21 C         143.3641  134.2266  156.5396 C.ar    1  UNL1       -0.0010
     22 C         142.6250  132.9388  156.3271 C.ar    1  UNL1       -0.0045
     23 C         141.7205  130.1369  155.2776 C.3     1  UNL1        0.0050
     24 C         141.1009  131.4358  154.8547 C.3     1  UNL1        0.0264
     25 C         138.6143  140.7153  164.5203 C.ar    1  UNL1        0.1377
     26 C         139.5120  141.7199  165.1795 C.ar    1  UNL1        0.0606
     27 C         140.0016  141.4847  166.5778 C.ar    1  UNL1        0.1418
     28 C         139.5934  140.2448  167.3167 C.ar    1  UNL1        0.0576
     29 C         138.6957  139.2401  166.6574 C.ar    1  UNL1        0.1021
     30 N         138.2061  139.4753  165.2592 N.ar    1  UNL1       -0.2390
     31 O         140.8993  142.4894  167.2371 O.3     1  UNL1       -0.4739
     32 C         142.3695  142.2170  167.3568 C.3     1  UNL1        0.2227
     33 C         143.0758  141.4314  166.2920 C.3     1  UNL1        0.1202
     34 N         143.6078  142.1277  165.0746 N.3     1  UNL1       -0.2653
     35 C         144.5707  141.5513  164.0793 C.3     1  UNL1        0.1044
     36 C         144.8282  142.5901  163.0284 C.3     1  UNL1        0.1544
     37 O         145.7309  142.4373  161.8401 O.3     1  UNL1       -0.3805
     38 C         144.0245  143.8085  163.3741 C.3     1  UNL1        0.1544
     39 O         143.9826  145.0880  162.5924 O.3     1  UNL1       -0.3805
     40 C         143.2703  143.5228  164.6388 C.3     1  UNL1        0.1044
     41 H         146.1313  141.5538  161.8497 H       1  UNL1        0.2105
     42 H         144.5606  145.0123  161.8171 H       1  UNL1        0.2105
@<TRIPOS>BOND
     1    23    24    1
     2    24    17    1
     3    17    18   ar
     4    18    19   ar
     5    19    20   ar
     6    20    16    1
     7    16    15    1
     8    15     7    1
     9     7     8   ar
    10     8     9   ar
    11     9    10   ar
    12    10     1    1
    13     1     2    1
    14     2     3    1
    15     3     4   am
    16     4     5    2
    17     4    25    1
    18    25    26   ar
    19    26    27   ar
    20    27    31    1
    21    31    32    1
    22    32    33    1
    23    33    34    1
    24    34    35    1
    25    35    36    1
    26    36    37    1
    27    36    38    1
    28    38    39    1
    29    38    40    1
    30    27    28   ar
    31    28    29   ar
    32    29    30   ar
    33     3     6    1
    34    10    11   ar
    35    11    12   ar
    36    12    13    1
    37    13    14    1
    38    20    21   ar
    39    21    22   ar
    40    22    17   ar
    41    12     7   ar
    42     6     1    1
    43    30    25   ar
    44    40    34    1
    45    37    41    1
    46    39    42    1
@<TRIPOS>MOLECULE
*****
 42 46 0 0 0
SMALL
GASTEIGER

@<TRIPOS>ATOM
      1 C         139.9891  139.4403  159.4215 C.3     1  UNL1        0.0621
      2 C         140.4381  140.6656  160.1613 C.3     1  UNL1        0.0998
      3 N         139.1030  140.7447  160.8405 N.am    1  UNL1       -0.2741
      4 C         138.4765  141.6670  161.8439 C.2     1  UNL1        0.2669
      5 O         137.0708  141.4263  162.3085 O.2     1  UNL1       -0.2683
      6 C         138.6541  139.5195  160.1008 C.3     1  UNL1        0.0998
      7 C         141.8687  136.6733  156.4114 C.ar    1  UNL1        0.1727
      8 C         142.6746  137.1787  157.5712 C.ar    1  UNL1        0.0397
      9 C         142.0480  138.1010  158.5746 C.ar    1  UNL1       -0.0009
     10 C         140.6156  138.5179  158.4181 C.ar    1  UNL1       -0.0160
     11 C         139.8098  138.0125  157.2584 C.ar    1  UNL1        0.0359
     12 C         140.4363  137.0902  156.2550 C.ar    1  UNL1        0.1721
     13 O         139.6305  136.5848  155.0952 O.3     1  UNL1       -0.4684
     14 C         138.4505  137.3694  154.6031 C.3     1  UNL1        0.2526
     15 O         142.4952  135.7509  155.4080 O.3     1  UNL1       -0.4676
     16 C         142.0453  134.3228  155.3186 C.3     1  UNL1        0.2321
     17 C         144.2350  131.1264  157.6073 C.ar    1  UNL1       -0.0222
     18 C         144.6728  132.5572  157.7121 C.ar    1  UNL1       -0.0045
     19 C         143.9429  133.6227  156.9492 C.ar    1  UNL1       -0.0010
     20 C         142.7752  133.2573  156.0815 C.ar    1  UNL1        0.0211
     21 C         142.3374  131.8265  155.9767 C.ar    1  UNL1       -0.0010
     22 C         143.0673  130.7610  156.7395 C.ar    1  UNL1       -0.0045
     23 C         144.2092  128.9012  158.9482 C.3     1  UNL1        0.0050
     24 C         144.9649  130.0609  158.3701 C.3     1  UNL1        0.0264
     25 C         139.2558  142.8300  162.3826 C.ar    1  UNL1        0.1377
     26 C         140.3392  142.6026  163.3947 C.ar    1  UNL1        0.0606
     27 C         141.1185  143.7657  163.9334 C.ar    1  UNL1        0.1418
     28 C         140.8143  145.1561  163.4599 C.ar    1  UNL1        0.0576
     29 C         139.7308  145.3835  162.4478 C.ar    1  UNL1        0.1021
     30 N         138.9516  144.2205  161.9091 N.ar    1  UNL1       -0.2390
     31 O         142.2019  143.5382  164.9455 O.3     1  UNL1       -0.4739
     32 C         143.2972  142.5530  164.6632 C.3     1  UNL1        0.2227
     33 C         143.1654  141.1322  165.1258 C.3     1  UNL1        0.1202
     34 N         143.1026  140.0193  164.1220 N.3     1  UNL1       -0.2653
     35 C         141.9206  139.1334  163.8607 C.3     1  UNL1        0.1044
     36 C         142.2982  138.1636  162.7806 C.3     1  UNL1        0.1544
     37 O         141.4154  137.0948  162.2073 O.3     1  UNL1       -0.3805
     38 C         143.7134  138.4501  162.3743 C.3     1  UNL1        0.1544
     39 O         144.4943  137.7181  161.3233 O.3     1  UNL1       -0.3805
     40 C         144.2105  139.5970  163.2033 C.3     1  UNL1        0.1044
     41 H         140.5496  137.1220  162.6438 H       1  UNL1        0.2105
     42 H         143.9420  137.0203  160.9375 H       1  UNL1        0.2105
@<TRIPOS>BOND
     1    23    24    1
     2    24    17    1
     3    17    18   ar
     4    18    19   ar
     5    19    20   ar
     6    20    16    1
     7    16    15    1
     8    15     7    1
     9     7     8   ar
    10     8     9   ar
    11     9    10   ar
    12    10     1    1
    13     1     2    1
    14     2     3    1
    15     3     4   am
    16     4     5    2
    17     4    25    1
    18    25    26   ar
    19    26    27   ar
    20    27    31    1
    21    31    32    1
    22    32    33    1
    23    33    34    1
    24    34    35    1
    25    35    36    1
    26    36    37    1
    27    36    38    1
    28    38    39    1
    29    38    40    1
    30    27    28   ar
    31    28    29   ar
    32    29    30   ar
    33     3     6    1
    34    10    11   ar
    35    11    12   ar
    36    12    13    1
    37    13    14    1
    38    20    21   ar
    39    21    22   ar
    40    22    17   ar
    41    12     7   ar
    42     6     1    1
    43    30    25   ar
    44    40    34    1
    45    37    41    1
    46    39    42    1
@<TRIPOS>MOLECULE
*****
 42 46 0 0 0
SMALL
GASTEIGER

@<TRIPOS>ATOM
      1 C         140.3176  142.1304  158.7446 C.3     1  UNL1        0.0621
      2 C         140.7452  142.7980  160.0180 C.3     1  UNL1        0.0998
      3 N         142.0365  142.0355  159.9840 N.am    1  UNL1       -0.2741
      4 C         143.2520  141.9684  160.8604 C.2     1  UNL1        0.2669
      5 O         144.3886  141.0592  160.4980 O.2     1  UNL1       -0.2683
      6 C         141.6089  141.3680  158.7107 C.3     1  UNL1        0.0998
      7 C         136.6711  142.3316  156.1154 C.ar    1  UNL1        0.1727
      8 C         136.9257  141.1133  156.9527 C.ar    1  UNL1        0.0397
      9 C         138.1412  141.0463  157.8291 C.ar    1  UNL1       -0.0009
     10 C         139.1021  142.1975  157.8682 C.ar    1  UNL1       -0.0160
     11 C         138.8475  143.4157  157.0309 C.ar    1  UNL1        0.0359
     12 C         137.6320  143.4827  156.1545 C.ar    1  UNL1        0.1721
     13 O         137.3774  144.7009  155.3172 O.3     1  UNL1       -0.4684
     14 C         138.4137  145.7821  155.2313 C.3     1  UNL1        0.2526
     15 O         135.4556  142.3987  155.2390 O.3     1  UNL1       -0.4676
     16 C         134.8319  141.1357  154.7237 C.3     1  UNL1        0.2321
     17 C         131.1026  139.5177  156.6537 C.ar    1  UNL1       -0.0222
     18 C         132.3771  138.7284  156.7059 C.ar    1  UNL1       -0.0045
     19 C         133.6202  139.2677  156.0625 C.ar    1  UNL1       -0.0010
     20 C         133.5888  140.5963  155.3670 C.ar    1  UNL1        0.0211
     21 C         132.3144  141.3856  155.3148 C.ar    1  UNL1       -0.0010
     22 C         131.0713  140.8463  155.9582 C.ar    1  UNL1       -0.0045
     23 C         129.9263  138.3747  158.6685 C.3     1  UNL1        0.0050
     24 C         129.8595  138.9784  157.2970 C.3     1  UNL1        0.0264
     25 C         143.3309  142.8106  162.0992 C.ar    1  UNL1        0.1377
     26 C         143.0997  142.1891  163.4446 C.ar    1  UNL1        0.0606
     27 C         143.1786  143.0313  164.6834 C.ar    1  UNL1        0.1418
     28 C         143.4885  144.4950  164.5767 C.ar    1  UNL1        0.0576
     29 C         143.7196  145.1166  163.2312 C.ar    1  UNL1        0.1021
     30 N         143.6408  144.2744  161.9925 N.ar    1  UNL1       -0.2390
     31 O         142.9475  142.4097  166.0288 O.3     1  UNL1       -0.4739
     32 C         141.5844  141.9033  166.3969 C.3     1  UNL1        0.2227
     33 C         140.4273  142.8545  166.4772 C.3     1  UNL1        0.1202
     34 N         139.4083  142.8906  165.3771 N.3     1  UNL1       -0.2653
     35 C         139.0738  144.0781  164.5237 C.3     1  UNL1        0.1044
     36 C         138.0037  143.6669  163.5564 C.3     1  UNL1        0.1544
     37 O         137.3714  144.5434  162.5162 O.3     1  UNL1       -0.3805
     38 C         137.6769  142.2254  163.8119 C.3     1  UNL1        0.1544
     39 O         136.6603  141.4074  163.0719 O.3     1  UNL1       -0.3805
     40 C         138.5449  141.7456  164.9371 C.3     1  UNL1        0.1044
     41 H         137.7615  145.4304  162.5602 H       1  UNL1        0.2105
     42 H         136.2373  141.9550  162.3922 H       1  UNL1        0.2105
@<TRIPOS>BOND
     1    23    24    1
     2    24    17    1
     3    17    18   ar
     4    18    19   ar
     5    19    20   ar
     6    20    16    1
     7    16    15    1
     8    15     7    1
     9     7     8   ar
    10     8     9   ar
    11     9    10   ar
    12    10     1    1
    13     1     2    1
    14     2     3    1
    15     3     4   am
    16     4     5    2
    17     4    25    1
    18    25    26   ar
    19    26    27   ar
    20    27    31    1
    21    31    32    1
    22    32    33    1
    23    33    34    1
    24    34    35    1
    25    35    36    1
    26    36    37    1
    27    36    38    1
    28    38    39    1
    29    38    40    1
    30    27    28   ar
    31    28    29   ar
    32    29    30   ar
    33     3     6    1
    34    10    11   ar
    35    11    12   ar
    36    12    13    1
    37    13    14    1
    38    20    21   ar
    39    21    22   ar
    40    22    17   ar
    41    12     7   ar
    42     6     1    1
    43    30    25   ar
    44    40    34    1
    45    37    41    1
    46    39    42    1
@<TRIPOS>MOLECULE
*****
 42 46 0 0 0
SMALL
GASTEIGER

@<TRIPOS>ATOM
      1 C         143.0669  141.3445  159.6353 C.3     1  UNL1        0.0621
      2 C         142.0584  141.7515  160.6685 C.3     1  UNL1        0.0998
      3 N         143.0008  142.8034  161.1739 N.am    1  UNL1       -0.2741
      4 C         142.9541  143.8349  162.2619 C.2     1  UNL1        0.2669
      5 O         144.1253  144.7456  162.4828 O.2     1  UNL1       -0.2683
      6 C         144.0092  142.3964  160.1409 C.3     1  UNL1        0.0998
      7 C         143.2071  138.2498  156.3714 C.ar    1  UNL1        0.1727
      8 C         142.3655  138.0160  157.5909 C.ar    1  UNL1        0.0397
      9 C         142.3188  139.0476  158.6789 C.ar    1  UNL1       -0.0009
     10 C         143.1136  140.3130  158.5473 C.ar    1  UNL1       -0.0160
     11 C         143.9551  140.5467  157.3278 C.ar    1  UNL1        0.0359
     12 C         144.0018  139.5151  156.2398 C.ar    1  UNL1        0.1721
     13 O         144.8433  139.7489  155.0203 O.3     1  UNL1       -0.4684
     14 C         145.9033  140.8102  155.0327 C.3     1  UNL1        0.2526
     15 O         143.2538  137.2183  155.2834 O.3     1  UNL1       -0.4676
     16 C         142.2188  136.1338  155.2331 C.3     1  UNL1        0.2321
     17 C         143.2325  131.9881  156.6598 C.ar    1  UNL1       -0.0222
     18 C         144.1331  133.1389  156.9983 C.ar    1  UNL1       -0.0045
     19 C         143.7952  134.5208  156.5227 C.ar    1  UNL1       -0.0010
     20 C         142.5567  134.7519  155.7087 C.ar    1  UNL1        0.0211
     21 C         141.6561  133.6011  155.3703 C.ar    1  UNL1       -0.0010
     22 C         141.9940  132.2192  155.8458 C.ar    1  UNL1       -0.0045
     23 C         144.6698  130.4052  158.1358 C.3     1  UNL1        0.0050
     24 C         143.5704  130.6062  157.1354 C.3     1  UNL1        0.0264
     25 C         141.7360  143.9558  163.1290 C.ar    1  UNL1        0.1377
     26 C         141.6068  143.1122  164.3625 C.ar    1  UNL1        0.0606
     27 C         140.3887  143.2331  165.2296 C.ar    1  UNL1        0.1418
     28 C         139.3000  144.1976  164.8631 C.ar    1  UNL1        0.0576
     29 C         139.4292  145.0412  163.6296 C.ar    1  UNL1        0.1021
     30 N         140.6473  144.9203  162.7625 N.ar    1  UNL1       -0.2390
     31 O         140.2595  142.3895  166.4631 O.3     1  UNL1       -0.4739
     32 C         140.5041  140.9113  166.3899 C.3     1  UNL1        0.2227
     33 C         140.3024  140.0566  167.6059 C.3     1  UNL1        0.1202
     34 N         141.1205  140.3016  168.8390 N.3     1  UNL1       -0.2653
     35 C         140.9464  141.4394  169.8010 C.3     1  UNL1        0.1044
     36 C         141.9747  141.2927  170.8831 C.3     1  UNL1        0.1544
     37 O         142.1608  142.2129  172.0531 O.3     1  UNL1       -0.3805
     38 C         142.7843  140.0645  170.5900 C.3     1  UNL1        0.1544
     39 O         143.9221  139.5408  171.4154 O.3     1  UNL1       -0.3805
     40 C         142.2564  139.4520  169.3267 C.3     1  UNL1        0.1044
     41 H         141.5083  142.9293  172.0080 H       1  UNL1        0.2105
     42 H         144.0612  140.1216  172.1797 H       1  UNL1        0.2105
@<TRIPOS>BOND
     1    23    24    1
     2    24    17    1
     3    17    18   ar
     4    18    19   ar
     5    19    20   ar
     6    20    16    1
     7    16    15    1
     8    15     7    1
     9     7     8   ar
    10     8     9   ar
    11     9    10   ar
    12    10     1    1
    13     1     2    1
    14     2     3    1
    15     3     4   am
    16     4     5    2
    17     4    25    1
    18    25    26   ar
    19    26    27   ar
    20    27    31    1
    21    31    32    1
    22    32    33    1
    23    33    34    1
    24    34    35    1
    25    35    36    1
    26    36    37    1
    27    36    38    1
    28    38    39    1
    29    38    40    1
    30    27    28   ar
    31    28    29   ar
    32    29    30   ar
    33     3     6    1
    34    10    11   ar
    35    11    12   ar
    36    12    13    1
    37    13    14    1
    38    20    21   ar
    39    21    22   ar
    40    22    17   ar
    41    12     7   ar
    42     6     1    1
    43    30    25   ar
    44    40    34    1
    45    37    41    1
    46    39    42    1
@<TRIPOS>MOLECULE
*****
 42 46 0 0 0
SMALL
GASTEIGER

@<TRIPOS>ATOM
      1 C         141.0666  140.4651  158.7947 C.3     1  UNL1        0.0621
      2 C         140.3197  140.9442  160.0041 C.3     1  UNL1        0.0998
      3 N         141.0693  142.2424  159.9528 N.am    1  UNL1       -0.2741
      4 C         141.0713  143.4992  160.7716 C.2     1  UNL1        0.2669
      5 O         141.9886  144.6292  160.4091 O.2     1  UNL1       -0.2683
      6 C         141.8162  141.7634  158.7434 C.3     1  UNL1        0.0998
      7 C         141.0609  136.6949  156.3380 C.ar    1  UNL1        0.1727
      8 C         142.3278  137.1627  156.9908 C.ar    1  UNL1        0.0397
      9 C         142.3297  138.4195  157.8097 C.ar    1  UNL1       -0.0009
     10 C         141.0647  139.2084  157.9758 C.ar    1  UNL1       -0.0160
     11 C         139.7979  138.7405  157.3230 C.ar    1  UNL1        0.0359
     12 C         139.7959  137.4837  156.5041 C.ar    1  UNL1        0.1721
     13 O         138.5291  137.0158  155.8514 O.3     1  UNL1       -0.4684
     14 C         138.0121  137.7159  154.6296 C.3     1  UNL1        0.2526
     15 O         141.0589  135.4381  155.5192 O.3     1  UNL1       -0.4676
     16 C         142.3558  134.7786  155.1545 C.3     1  UNL1        0.2321
     17 C         143.4394  130.7980  156.9520 C.ar    1  UNL1       -0.0222
     18 C         142.3330  130.8892  155.9433 C.ar    1  UNL1       -0.0045
     19 C         141.9718  132.2161  155.3442 C.ar    1  UNL1       -0.0010
     20 C         142.7170  133.4517  155.7537 C.ar    1  UNL1        0.0211
     21 C         143.8234  133.3605  156.7623 C.ar    1  UNL1       -0.0010
     22 C         144.1846  132.0337  157.3615 C.ar    1  UNL1       -0.0045
     23 C         144.8603  129.3898  158.6096 C.3     1  UNL1        0.0050
     24 C         143.8006  129.4712  157.5512 C.3     1  UNL1        0.0264
     25 C         140.1557  143.6259  161.9531 C.ar    1  UNL1        0.1377
     26 C         140.7037  143.4985  163.3436 C.ar    1  UNL1        0.0606
     27 C         139.7882  143.6252  164.5251 C.ar    1  UNL1        0.1418
     28 C         138.3247  143.8793  164.3160 C.ar    1  UNL1        0.0576
     29 C         137.7768  144.0067  162.9255 C.ar    1  UNL1        0.1021
     30 N         138.6923  143.8800  161.7441 N.ar    1  UNL1       -0.2390
     31 O         140.3361  143.4978  165.9156 O.3     1  UNL1       -0.4739
     32 C         141.0191  142.2314  166.3395 C.3     1  UNL1        0.2227
     33 C         142.4951  142.2284  166.6063 C.3     1  UNL1        0.1202
     34 N         143.4431  141.6975  165.5721 N.3     1  UNL1       -0.2653
     35 C         143.5154  140.2798  165.0872 C.3     1  UNL1        0.1044
     36 C         144.6022  140.1973  164.0567 C.3     1  UNL1        0.1544
     37 O         145.0168  138.9646  163.3093 O.3     1  UNL1       -0.3805
     38 C         145.2016  141.5639  163.9047 C.3     1  UNL1        0.1544
     39 O         146.3209  141.9376  162.9786 O.3     1  UNL1       -0.3805
     40 C         144.4853  142.4911  164.8412 C.3     1  UNL1        0.1044
     41 H         144.4708  138.2150  163.5938 H       1  UNL1        0.2105
     42 H         146.6061  141.1539  162.4834 H       1  UNL1        0.2105
@<TRIPOS>BOND
     1    23    24    1
     2    24    17    1
     3    17    18   ar
     4    18    19   ar
     5    19    20   ar
     6    20    16    1
     7    16    15    1
     8    15     7    1
     9     7     8   ar
    10     8     9   ar
    11     9    10   ar
    12    10     1    1
    13     1     2    1
    14     2     3    1
    15     3     4   am
    16     4     5    2
    17     4    25    1
    18    25    26   ar
    19    26    27   ar
    20    27    31    1
    21    31    32    1
    22    32    33    1
    23    33    34    1
    24    34    35    1
    25    35    36    1
    26    36    37    1
    27    36    38    1
    28    38    39    1
    29    38    40    1
    30    27    28   ar
    31    28    29   ar
    32    29    30   ar
    33     3     6    1
    34    10    11   ar
    35    11    12   ar
    36    12    13    1
    37    13    14    1
    38    20    21   ar
    39    21    22   ar
    40    22    17   ar
    41    12     7   ar
    42     6     1    1
    43    30    25   ar
    44    40    34    1
    45    37    41    1
    46    39    42    1
@<TRIPOS>MOLECULE
*****
 42 46 0 0 0
SMALL
GASTEIGER

@<TRIPOS>ATOM
      1 C         143.0514  141.1763  159.9002 C.3     1  UNL1        0.0621
      2 C         142.1874  141.4878  161.0862 C.3     1  UNL1        0.0998
      3 N         143.0556  142.6677  161.4088 N.am    1  UNL1       -0.2741
      4 C         143.0585  143.7222  162.4755 C.2     1  UNL1        0.2669
      5 O         144.1206  144.7814  162.4802 O.2     1  UNL1       -0.2683
      6 C         143.9195  142.3563  160.2229 C.3     1  UNL1        0.0998
      7 C         143.0427  138.0127  156.7000 C.ar    1  UNL1        0.1727
      8 C         142.6592  137.6581  158.1062 C.ar    1  UNL1        0.0397
      9 C         142.6621  138.7127  159.1730 C.ar    1  UNL1       -0.0009
     10 C         143.0485  140.1218  158.8335 C.ar    1  UNL1       -0.0160
     11 C         143.4320  140.4763  157.4274 C.ar    1  UNL1        0.0359
     12 C         143.4291  139.4217  156.3607 C.ar    1  UNL1        0.1721
     13 O         143.8126  139.7762  154.9545 O.3     1  UNL1       -0.4684
     14 C         145.2316  139.6068  154.4987 C.3     1  UNL1        0.2526
     15 O         143.0398  136.9581  155.6333 O.3     1  UNL1       -0.4676
     16 C         142.0089  135.8689  155.6583 C.3     1  UNL1        0.2321
     17 C         143.1835  131.6853  156.8276 C.ar    1  UNL1       -0.0222
     18 C         142.0641  131.9055  155.8538 C.ar    1  UNL1       -0.0045
     19 C         141.6725  133.3001  155.4641 C.ar    1  UNL1       -0.0010
     20 C         142.4004  134.4744  156.0480 C.ar    1  UNL1        0.0211
     21 C         143.5199  134.2542  157.0218 C.ar    1  UNL1       -0.0010
     22 C         143.9115  132.8596  157.4115 C.ar    1  UNL1       -0.0045
     23 C         144.6692  130.0714  158.2197 C.3     1  UNL1        0.0050
     24 C         143.5751  130.2907  157.2173 C.3     1  UNL1        0.0264
     25 C         141.9992  143.7176  163.5376 C.ar    1  UNL1        0.1377
     26 C         142.1652  142.8627  164.7588 C.ar    1  UNL1        0.0606
     27 C         141.1059  142.8581  165.8209 C.ar    1  UNL1        0.1418
     28 C         139.8806  143.7084  165.6617 C.ar    1  UNL1        0.0576
     29 C         139.7145  144.5634  164.4404 C.ar    1  UNL1        0.1021
     30 N         140.7738  144.5680  163.3784 N.ar    1  UNL1       -0.2390
     31 O         141.2720  142.0031  167.0421 O.3     1  UNL1       -0.4739
     32 C         140.8872  140.5539  167.0011 C.3     1  UNL1        0.2227
     33 C         141.9389  139.5041  166.7969 C.3     1  UNL1        0.1202
     34 N         142.2768  139.0407  165.4109 N.3     1  UNL1       -0.2653
     35 C         143.5088  139.4036  164.6357 C.3     1  UNL1        0.1044
     36 C         143.4354  138.7202  163.3025 C.3     1  UNL1        0.1544
     37 O         144.4596  138.8068  162.2098 O.3     1  UNL1       -0.3805
     38 C         142.1583  137.9350  163.2536 C.3     1  UNL1        0.1544
     39 O         141.6811  137.0987  162.1035 O.3     1  UNL1       -0.3805
     40 C         141.4422  138.1331  164.5566 C.3     1  UNL1        0.1044
     41 H         145.1892  139.3788  162.4951 H       1  UNL1        0.2105
     42 H         142.3293  137.1396  161.3830 H       1  UNL1        0.2105
@<TRIPOS>BOND
     1    23    24    1
     2    24    17    1
     3    17    18   ar
     4    18    19   ar
     5    19    20   ar
     6    20    16    1
     7    16    15    1
     8    15     7    1
     9     7     8   ar
    10     8     9   ar
    11     9    10   ar
    12    10     1    1
    13     1     2    1
    14     2     3    1
    15     3     4   am
    16     4     5    2
    17     4    25    1
    18    25    26   ar
    19    26    27   ar
    20    27    31    1
    21    31    32    1
    22    32    33    1
    23    33    34    1
    24    34    35    1
    25    35    36    1
    26    36    37    1
    27    36    38    1
    28    38    39    1
    29    38    40    1
    30    27    28   ar
    31    28    29   ar
    32    29    30   ar
    33     3     6    1
    34    10    11   ar
    35    11    12   ar
    36    12    13    1
    37    13    14    1
    38    20    21   ar
    39    21    22   ar
    40    22    17   ar
    41    12     7   ar
    42     6     1    1
    43    30    25   ar
    44    40    34    1
    45    37    41    1
    46    39    42    1
@<TRIPOS>MOLECULE
*****
 42 46 0 0 0
SMALL
GASTEIGER

@<TRIPOS>ATOM
      1 C         140.9723  140.3241  158.9031 C.3     1  UNL1        0.0621
      2 C         141.8116  140.8365  160.0359 C.3     1  UNL1        0.0998
      3 N         140.9241  142.0405  160.1487 N.am    1  UNL1       -0.2741
      4 C         140.8899  143.2542  161.0295 C.2     1  UNL1        0.2669
      5 O         139.8155  144.2845  160.8454 O.2     1  UNL1       -0.2683
      6 C         140.0849  141.5281  159.0160 C.3     1  UNL1        0.0998
      7 C         141.0747  136.6830  156.2607 C.ar    1  UNL1        0.1727
      8 C         142.3308  137.1626  156.9258 C.ar    1  UNL1        0.0397
      9 C         142.2967  138.3763  157.8066 C.ar    1  UNL1       -0.0009
     10 C         141.0064  139.1104  158.0223 C.ar    1  UNL1       -0.0160
     11 C         139.7504  138.6309  157.3572 C.ar    1  UNL1        0.0359
     12 C         139.7845  137.4172  156.4764 C.ar    1  UNL1        0.1721
     13 O         138.5285  136.9376  155.8113 O.3     1  UNL1       -0.4684
     14 C         138.0776  137.5597  154.5229 C.3     1  UNL1        0.2526
     15 O         141.1088  135.4694  155.3799 O.3     1  UNL1       -0.4676
     16 C         142.4162  134.7999  155.0757 C.3     1  UNL1        0.2321
     17 C         143.4149  130.8452  156.9763 C.ar    1  UNL1       -0.0222
     18 C         142.3148  130.9325  155.9604 C.ar    1  UNL1       -0.0045
     19 C         141.9819  132.2508  155.3269 C.ar    1  UNL1       -0.0010
     20 C         142.7491  133.4817  155.7092 C.ar    1  UNL1        0.0211
     21 C         143.8492  133.3943  156.7251 C.ar    1  UNL1       -0.0010
     22 C         144.1821  132.0761  157.3586 C.ar    1  UNL1       -0.0045
     23 C         144.8742  129.4318  158.5958 C.3     1  UNL1        0.0050
     24 C         143.7478  129.5269  157.6098 C.3     1  UNL1        0.0264
     25 C         141.9303  143.4375  162.0945 C.ar    1  UNL1        0.1377
     26 C         141.8913  142.5939  163.3341 C.ar    1  UNL1        0.0606
     27 C         142.9317  142.7772  164.3991 C.ar    1  UNL1        0.1418
     28 C         144.0110  143.8041  164.2244 C.ar    1  UNL1        0.0576
     29 C         144.0500  144.6477  162.9846 C.ar    1  UNL1        0.1021
     30 N         143.0096  144.4644  161.9197 N.ar    1  UNL1       -0.2390
     31 O         142.8927  141.9336  165.6388 O.3     1  UNL1       -0.4739
     32 C         141.5805  141.6330  166.3005 C.3     1  UNL1        0.2227
     33 C         140.5270  142.6966  166.3947 C.3     1  UNL1        0.1202
     34 N         139.4551  142.7852  165.3493 N.3     1  UNL1       -0.2653
     35 C         138.5708  141.6615  164.8956 C.3     1  UNL1        0.1044
     36 C         137.6485  142.1949  163.8399 C.3     1  UNL1        0.1544
     37 O         136.5965  141.4124  163.1110 O.3     1  UNL1       -0.3805
     38 C         137.9625  143.6481  163.6410 C.3     1  UNL1        0.1544
     39 O         137.2798  144.5739  162.6783 O.3     1  UNL1       -0.3805
     40 C         139.0790  144.0129  164.5738 C.3     1  UNL1        0.1044
     41 H         136.5990  140.4952  163.4266 H       1  UNL1        0.2105
     42 H         136.5936  144.0884  162.1943 H       1  UNL1        0.2105
@<TRIPOS>BOND
     1    23    24    1
     2    24    17    1
     3    17    18   ar
     4    18    19   ar
     5    19    20   ar
     6    20    16    1
     7    16    15    1
     8    15     7    1
     9     7     8   ar
    10     8     9   ar
    11     9    10   ar
    12    10     1    1
    13     1     2    1
    14     2     3    1
    15     3     4   am
    16     4     5    2
    17     4    25    1
    18    25    26   ar
    19    26    27   ar
    20    27    31    1
    21    31    32    1
    22    32    33    1
    23    33    34    1
    24    34    35    1
    25    35    36    1
    26    36    37    1
    27    36    38    1
    28    38    39    1
    29    38    40    1
    30    27    28   ar
    31    28    29   ar
    32    29    30   ar
    33     3     6    1
    34    10    11   ar
    35    11    12   ar
    36    12    13    1
    37    13    14    1
    38    20    21   ar
    39    21    22   ar
    40    22    17   ar
    41    12     7   ar
    42     6     1    1
    43    30    25   ar
    44    40    34    1
    45    37    41    1
    46    39    42    1
