@<TRIPOS>MOLECULE
*****
 41 45 0 0 0
SMALL
GASTEIGER

@<TRIPOS>ATOM
      1 C         138.1107  139.9456  159.5549 C.3     1  UNL1        0.0758
      2 C         137.8284  140.6678  158.2709 C.3     1  UNL1        0.0370
      3 C         138.6110  140.3346  157.0354 C.3     1  UNL1        0.0741
      4 N         139.6759  139.2793  157.0839 N.3     1  UNL1       -0.2688
      5 C         139.9581  138.5571  158.3679 C.3     1  UNL1        0.0741
      6 C         139.1755  138.8902  159.6034 C.3     1  UNL1        0.0370
      7 O         139.4203  141.4395  161.8028 O.2     1  UNL1       -0.2528
      8 C         137.9829  141.0256  161.9144 C.2     1  UNL1        0.3010
      9 N         137.3281  140.2787  160.7905 N.am    1  UNL1       -0.2905
     10 N         137.2003  141.3587  163.1500 N.am    1  UNL1       -0.2848
     11 H         136.3846  140.0070  160.8637 H       1  UNL1        0.1509
     12 H         136.2568  141.0871  163.2232 H       1  UNL1        0.1513
     13 C         137.8551  142.1057  164.2739 C.3     1  UNL1        0.1199
     14 C         138.5733  141.3545  165.3555 C.ar    1  UNL1       -0.0025
     15 C         139.6858  142.0144  166.1152 C.ar    1  UNL1       -0.0026
     16 C         140.4039  141.2633  167.1969 C.ar    1  UNL1       -0.0003
     17 C         140.0097  139.8523  167.5189 C.ar    1  UNL1       -0.0000
     18 C         138.8973  139.1924  166.7592 C.ar    1  UNL1       -0.0003
     19 C         138.1791  139.9435  165.6775 C.ar    1  UNL1       -0.0026
     20 C         137.7918  143.6037  164.3162 C.3     1  UNL1        0.1515
     21 N         138.7597  144.4183  163.5102 N.ar    1  UNL1       -0.2474
     22 C         140.1959  144.6778  163.8564 C.ar    1  UNL1        0.0968
     23 C         140.7852  145.5363  162.7768 C.ar    1  UNL1        0.0427
     24 C         139.7130  145.8076  161.7633 C.ar    1  UNL1        0.1217
     25 N         138.4612  145.1166  162.2166 N.ar    1  UNL1       -0.1676
     26 C         140.4585  138.9462  155.8483 C.3     1  UNL1        0.1007
     27 C         140.8166  137.5207  155.5489 C.ar    1  UNL1        0.0129
     28 C         140.4314  136.7547  154.3180 C.ar    1  UNL1        0.0176
     29 C         140.9994  135.3715  154.4362 C.ar    1  UNL1        0.0799
     30 N         141.7357  135.2826  155.7400 N.ar    1  UNL1       -0.3038
     31 C         141.6227  136.6108  156.4277 C.ar    1  UNL1        0.0772
     32 C         142.4582  134.0770  156.2642 C.ar    1  UNL1        0.0640
     33 C         143.6363  134.2467  157.1769 C.ar    1  UNL1        0.0175
     34 C         144.3588  133.0412  157.7010 C.ar    1  UNL1        0.0053
     35 C         143.9031  131.6660  157.3124 C.ar    1  UNL1        0.0715
     36 C         142.7250  131.4962  156.3997 C.ar    1  UNL1        0.0053
     37 C         142.0025  132.7018  155.8755 C.ar    1  UNL1        0.0175
     38 C         144.6256  130.4605  157.8365 C.3     1  UNL1        0.4186
     39 F         145.3480  129.2549  158.3606 F       1  UNL1       -0.1659
     40 F         145.7236  131.3427  158.3522 F       1  UNL1       -0.1659
     41 F         143.5275  129.5781  157.3208 F       1  UNL1       -0.1659
@<TRIPOS>BOND
     1     7     8    2
     2     8     9   am
     3     9     1    1
     4     1     2    1
     5     2     3    1
     6     3     4    1
     7     4    26    1
     8    26    27    1
     9    27    28   ar
    10    28    29   ar
    11    29    30   ar
    12    30    32    1
    13    32    33   ar
    14    33    34   ar
    15    34    35   ar
    16    35    38    1
    17    38    39    1
    18    38    40    1
    19    38    41    1
    20    35    36   ar
    21    36    37   ar
    22    30    31   ar
    23     4     5    1
    24     5     6    1
    25     8    10   am
    26    10    13    1
    27    13    20    1
    28    20    21    1
    29    21    22   ar
    30    22    23   ar
    31    23    24   ar
    32    24    25   ar
    33    13    14    1
    34    14    15   ar
    35    15    16   ar
    36    16    17   ar
    37    17    18   ar
    38    18    19   ar
    39     6     1    1
    40    25    21   ar
    41    19    14   ar
    42    31    27   ar
    43    37    32   ar
    44     9    11    1
    45    10    12    1
@<TRIPOS>MOLECULE
*****
 41 45 0 0 0
SMALL
GASTEIGER

@<TRIPOS>ATOM
      1 C         139.9899  145.1572  156.6287 C.3     1  UNL1        0.0758
      2 C         138.8467  145.8656  155.9645 C.3     1  UNL1        0.0370
      3 C         138.1645  145.2440  154.7820 C.3     1  UNL1        0.0741
      4 N         138.6255  143.9140  154.2638 N.3     1  UNL1       -0.2688
      5 C         139.7687  143.2056  154.9280 C.3     1  UNL1        0.0741
      6 C         140.4509  143.8272  156.1105 C.3     1  UNL1        0.0370
      7 O         139.5344  144.0467  159.3781 O.2     1  UNL1       -0.2528
      8 C         140.4444  145.2236  159.1859 C.2     1  UNL1        0.3010
      9 N         140.6722  145.7788  157.8112 N.am    1  UNL1       -0.2905
     10 N         141.1267  145.8452  160.3684 N.am    1  UNL1       -0.2848
     11 H         141.2694  146.5512  157.6850 H       1  UNL1        0.1509
     12 H         141.7239  146.6176  160.2422 H       1  UNL1        0.1513
     13 C         140.8989  145.2899  161.7430 C.3     1  UNL1        0.1199
     14 C         142.0049  144.5663  162.4523 C.ar    1  UNL1       -0.0025
     15 C         142.4414  143.2123  161.9765 C.ar    1  UNL1       -0.0026
     16 C         143.5474  142.4887  162.6857 C.ar    1  UNL1       -0.0003
     17 C         144.2169  143.1189  163.8708 C.ar    1  UNL1       -0.0000
     18 C         143.7805  144.4728  164.3467 C.ar    1  UNL1       -0.0003
     19 C         142.6744  145.1965  163.6374 C.ar    1  UNL1       -0.0026
     20 C         139.5652  145.4583  162.4085 C.3     1  UNL1        0.1515
     21 N         138.8475  144.2636  162.9630 N.ar    1  UNL1       -0.2474
     22 C         138.9675  143.7336  164.3611 C.ar    1  UNL1        0.0968
     23 C         138.0780  142.5316  164.4791 C.ar    1  UNL1        0.0427
     24 C         137.4083  142.3186  163.1538 C.ar    1  UNL1        0.1217
     25 N         137.8839  143.3891  162.2169 N.ar    1  UNL1       -0.1676
     26 C         137.9433  143.2924  153.0813 C.3     1  UNL1        0.1007
     27 C         136.5676  142.7129  153.2283 C.ar    1  UNL1        0.0129
     28 C         135.5053  142.6842  152.1697 C.ar    1  UNL1        0.0176
     29 C         134.2939  142.0138  152.7468 C.ar    1  UNL1        0.0799
     30 N         134.6075  141.6281  154.1621 N.ar    1  UNL1       -0.3038
     31 C         136.0128  142.0602  154.4596 C.ar    1  UNL1        0.0772
     32 C         133.6789  140.9326  155.1128 C.ar    1  UNL1        0.0640
     33 C         132.2649  141.4096  155.2640 C.ar    1  UNL1        0.0175
     34 C         131.3364  140.7140  156.2147 C.ar    1  UNL1        0.0053
     35 C         131.8218  139.5414  157.0142 C.ar    1  UNL1        0.0715
     36 C         133.2358  139.0643  156.8630 C.ar    1  UNL1        0.0053
     37 C         134.1644  139.7599  155.9123 C.ar    1  UNL1        0.0175
     38 C         130.8932  138.8458  157.9649 C.3     1  UNL1        0.4186
     39 F         129.9647  138.1502  158.9157 F       1  UNL1       -0.1659
     40 F         129.7247  139.5434  157.3340 F       1  UNL1       -0.1659
     41 F         132.0617  138.1482  158.5959 F       1  UNL1       -0.1659
@<TRIPOS>BOND
     1     7     8    2
     2     8     9   am
     3     9     1    1
     4     1     2    1
     5     2     3    1
     6     3     4    1
     7     4    26    1
     8    26    27    1
     9    27    28   ar
    10    28    29   ar
    11    29    30   ar
    12    30    32    1
    13    32    33   ar
    14    33    34   ar
    15    34    35   ar
    16    35    38    1
    17    38    39    1
    18    38    40    1
    19    38    41    1
    20    35    36   ar
    21    36    37   ar
    22    30    31   ar
    23     4     5    1
    24     5     6    1
    25     8    10   am
    26    10    13    1
    27    13    20    1
    28    20    21    1
    29    21    22   ar
    30    22    23   ar
    31    23    24   ar
    32    24    25   ar
    33    13    14    1
    34    14    15   ar
    35    15    16   ar
    36    16    17   ar
    37    17    18   ar
    38    18    19   ar
    39     6     1    1
    40    25    21   ar
    41    19    14   ar
    42    31    27   ar
    43    37    32   ar
    44     9    11    1
    45    10    12    1
@<TRIPOS>MOLECULE
*****
 41 45 0 0 0
SMALL
GASTEIGER

@<TRIPOS>ATOM
      1 C         140.3229  139.2575  161.7031 C.3     1  UNL1        0.0758
      2 C         140.0909  140.1137  160.4936 C.3     1  UNL1        0.0370
      3 C         140.8631  139.8567  159.2335 C.3     1  UNL1        0.0741
      4 N         141.8672  138.7435  159.1831 N.3     1  UNL1       -0.2688
      5 C         142.0992  137.8874  160.3927 C.3     1  UNL1        0.0741
      6 C         141.3271  138.1444  161.6527 C.3     1  UNL1        0.0370
      7 O         141.5395  140.8996  163.8994 O.2     1  UNL1       -0.2528
      8 C         140.1590  140.3356  164.0613 C.2     1  UNL1        0.3010
      9 N         139.5508  139.5145  162.9632 N.am    1  UNL1       -0.2905
     10 N         139.3869  140.5925  165.3215 N.am    1  UNL1       -0.2848
     11 H         138.6447  139.1443  163.0695 H       1  UNL1        0.1509
     12 H         138.4808  140.2223  165.4277 H       1  UNL1        0.1513
     13 C         139.9951  141.4136  166.4196 C.3     1  UNL1        0.1199
     14 C         140.6237  140.7371  167.6016 C.ar    1  UNL1       -0.0025
     15 C         139.9105  140.7167  168.9210 C.ar    1  UNL1       -0.0026
     16 C         140.5391  140.0402  170.1030 C.ar    1  UNL1       -0.0003
     17 C         141.8809  139.3841  169.9657 C.ar    1  UNL1       -0.0000
     18 C         142.5942  139.4044  168.6463 C.ar    1  UNL1       -0.0003
     19 C         141.9656  140.0809  167.4642 C.ar    1  UNL1       -0.0026
     20 C         139.9748  142.9111  166.3357 C.3     1  UNL1        0.1515
     21 N         139.4013  143.5867  165.1255 N.ar    1  UNL1       -0.2474
     22 C         140.1067  144.5843  164.2554 C.ar    1  UNL1        0.0968
     23 C         139.1631  144.9976  163.1651 C.ar    1  UNL1        0.0427
     24 C         137.8744  144.2554  163.3614 C.ar    1  UNL1        0.1217
     25 N         138.0216  143.3835  164.5730 N.ar    1  UNL1       -0.1676
     26 C         142.6394  138.4866  157.9230 C.3     1  UNL1        0.1007
     27 C         142.4103  137.2233  157.1474 C.ar    1  UNL1        0.0129
     28 C         141.2519  136.9463  156.2356 C.ar    1  UNL1        0.0176
     29 C         141.4250  135.5670  155.6722 C.ar    1  UNL1        0.0799
     30 N         142.6904  134.9915  156.2357 N.ar    1  UNL1       -0.3038
     31 C         143.2993  136.0151  157.1475 C.ar    1  UNL1        0.0772
     32 C         143.2488  133.6312  155.9395 C.ar    1  UNL1        0.0640
     33 C         142.6989  132.8267  154.7993 C.ar    1  UNL1        0.0175
     34 C         143.2573  131.4664  154.5031 C.ar    1  UNL1        0.0053
     35 C         144.3657  130.9106  155.3471 C.ar    1  UNL1        0.0715
     36 C         144.9157  131.7151  156.4873 C.ar    1  UNL1        0.0053
     37 C         144.3573  133.0754  156.7836 C.ar    1  UNL1        0.0175
     38 C         144.9241  129.5503  155.0508 C.3     1  UNL1        0.4186
     39 F         145.4825  128.1900  154.7547 F       1  UNL1       -0.1659
     40 F         144.9524  129.8805  153.5879 F       1  UNL1       -0.1659
     41 F         144.8958  129.2201  156.5138 F       1  UNL1       -0.1659
@<TRIPOS>BOND
     1     7     8    2
     2     8     9   am
     3     9     1    1
     4     1     2    1
     5     2     3    1
     6     3     4    1
     7     4    26    1
     8    26    27    1
     9    27    28   ar
    10    28    29   ar
    11    29    30   ar
    12    30    32    1
    13    32    33   ar
    14    33    34   ar
    15    34    35   ar
    16    35    38    1
    17    38    39    1
    18    38    40    1
    19    38    41    1
    20    35    36   ar
    21    36    37   ar
    22    30    31   ar
    23     4     5    1
    24     5     6    1
    25     8    10   am
    26    10    13    1
    27    13    20    1
    28    20    21    1
    29    21    22   ar
    30    22    23   ar
    31    23    24   ar
    32    24    25   ar
    33    13    14    1
    34    14    15   ar
    35    15    16   ar
    36    16    17   ar
    37    17    18   ar
    38    18    19   ar
    39     6     1    1
    40    25    21   ar
    41    19    14   ar
    42    31    27   ar
    43    37    32   ar
    44     9    11    1
    45    10    12    1
@<TRIPOS>MOLECULE
*****
 41 45 0 0 0
SMALL
GASTEIGER

@<TRIPOS>ATOM
      1 C         143.1388  139.3929  160.9878 C.3     1  UNL1        0.0758
      2 C         142.6358  138.0470  160.5570 C.3     1  UNL1        0.0370
      3 C         142.6360  137.6764  159.1035 C.3     1  UNL1        0.0741
      4 N         143.1392  138.6516  158.0809 N.3     1  UNL1       -0.2688
      5 C         143.6422  139.9975  158.5117 C.3     1  UNL1        0.0741
      6 C         143.6420  140.3681  159.9652 C.3     1  UNL1        0.0370
      7 O         140.5508  139.9856  162.3845 O.2     1  UNL1       -0.2528
      8 C         141.8447  140.0599  163.1396 C.2     1  UNL1        0.3010
      9 N         143.1387  139.7635  162.4413 N.am    1  UNL1       -0.2905
     10 N         141.8446  140.4306  164.5932 N.am    1  UNL1       -0.2848
     11 H         143.9879  139.8123  162.9370 H       1  UNL1        0.1509
     12 H         142.6938  140.4794  165.0888 H       1  UNL1        0.1513
     13 C         140.5506  140.7269  165.2915 C.3     1  UNL1        0.1199
     14 C         139.7818  141.9690  164.9506 C.ar    1  UNL1       -0.0025
     15 C         140.4326  143.3140  165.0830 C.ar    1  UNL1       -0.0026
     16 C         139.6638  144.5560  164.7422 C.ar    1  UNL1       -0.0003
     17 C         138.2442  144.4532  164.2689 C.ar    1  UNL1       -0.0000
     18 C         137.5933  143.1083  164.1365 C.ar    1  UNL1       -0.0003
     19 C         138.3621  141.8661  164.4774 C.ar    1  UNL1       -0.0026
     20 C         140.0254  139.7812  166.3306 C.3     1  UNL1        0.1515
     21 N         139.7816  140.2642  167.7296 N.ar    1  UNL1       -0.2474
     22 C         140.4279  141.4530  168.3771 C.ar    1  UNL1        0.0968
     23 C         139.8946  141.5667  169.7744 C.ar    1  UNL1        0.0427
     24 C         138.9186  140.4483  169.9906 C.ar    1  UNL1        0.1217
     25 N         138.8488  139.6433  168.7268 N.ar    1  UNL1       -0.1676
     26 C         143.1393  138.2810  156.6273 C.3     1  UNL1        0.1007
     27 C         142.7626  136.8910  156.2078 C.ar    1  UNL1        0.0129
     28 C         141.3874  136.4264  155.8296 C.ar    1  UNL1        0.0176
     29 C         141.4698  134.9699  155.4808 C.ar    1  UNL1        0.0799
     30 N         142.8959  134.5342  155.6434 N.ar    1  UNL1       -0.3038
     31 C         143.6949  135.7216  156.0927 C.ar    1  UNL1        0.0772
     32 C         143.4294  133.1537  155.3996 C.ar    1  UNL1        0.0640
     33 C         142.9634  132.3690  154.2092 C.ar    1  UNL1        0.0175
     34 C         143.4969  130.9884  153.9654 C.ar    1  UNL1        0.0053
     35 C         144.4963  130.3926  154.9118 C.ar    1  UNL1        0.0715
     36 C         144.9623  131.1773  156.1023 C.ar    1  UNL1        0.0053
     37 C         144.4289  132.5578  156.3461 C.ar    1  UNL1        0.0175
     38 C         145.0297  129.0120  154.6680 C.3     1  UNL1        0.4186
     39 F         145.5632  127.6315  154.4240 F       1  UNL1       -0.1659
     40 F         145.1347  128.7912  156.1479 F       1  UNL1       -0.1659
     41 F         144.9248  129.2329  153.1880 F       1  UNL1       -0.1659
@<TRIPOS>BOND
     1     7     8    2
     2     8     9   am
     3     9     1    1
     4     1     2    1
     5     2     3    1
     6     3     4    1
     7     4    26    1
     8    26    27    1
     9    27    28   ar
    10    28    29   ar
    11    29    30   ar
    12    30    32    1
    13    32    33   ar
    14    33    34   ar
    15    34    35   ar
    16    35    38    1
    17    38    39    1
    18    38    40    1
    19    38    41    1
    20    35    36   ar
    21    36    37   ar
    22    30    31   ar
    23     4     5    1
    24     5     6    1
    25     8    10   am
    26    10    13    1
    27    13    20    1
    28    20    21    1
    29    21    22   ar
    30    22    23   ar
    31    23    24   ar
    32    24    25   ar
    33    13    14    1
    34    14    15   ar
    35    15    16   ar
    36    16    17   ar
    37    17    18   ar
    38    18    19   ar
    39     6     1    1
    40    25    21   ar
    41    19    14   ar
    42    31    27   ar
    43    37    32   ar
    44     9    11    1
    45    10    12    1
@<TRIPOS>MOLECULE
*****
 41 45 0 0 0
SMALL
GASTEIGER

@<TRIPOS>ATOM
      1 C         143.2137  142.6547  158.0780 C.3     1  UNL1        0.0758
      2 C         142.0782  142.1816  157.2198 C.3     1  UNL1        0.0370
      3 C         142.2708  141.0143  156.2977 C.3     1  UNL1        0.0741
      4 N         143.5990  140.3202  156.2339 N.3     1  UNL1       -0.2688
      5 C         144.7346  140.7933  157.0922 C.3     1  UNL1        0.0741
      6 C         144.5419  141.9606  158.0142 C.3     1  UNL1        0.0370
      7 O         142.6262  142.1905  160.9831 O.2     1  UNL1       -0.2528
      8 C         142.7273  143.5899  160.4527 C.2     1  UNL1        0.3010
      9 N         143.0210  143.8221  159.0002 N.am    1  UNL1       -0.2905
     10 N         142.5346  144.7573  161.3748 N.am    1  UNL1       -0.2848
     11 H         143.0874  144.7406  158.6521 H       1  UNL1        0.1509
     12 H         142.6010  145.6758  161.0267 H       1  UNL1        0.1513
     13 C         142.2409  144.5252  162.8273 C.3     1  UNL1        0.1199
     14 C         140.8205  144.4770  163.3068 C.ar    1  UNL1       -0.0025
     15 C         140.5208  144.1005  164.7276 C.ar    1  UNL1       -0.0026
     16 C         139.1004  144.0523  165.2071 C.ar    1  UNL1       -0.0003
     17 C         137.9795  144.3806  164.2659 C.ar    1  UNL1       -0.0000
     18 C         138.2791  144.7571  162.8452 C.ar    1  UNL1       -0.0003
     19 C         139.6996  144.8053  162.3656 C.ar    1  UNL1       -0.0026
     20 C         143.3676  144.3412  163.8003 C.3     1  UNL1        0.1515
     21 N         144.0079  142.9942  163.9605 N.ar    1  UNL1       -0.2474
     22 C         143.5434  141.9005  164.8758 C.ar    1  UNL1        0.0968
     23 C         144.4735  140.7348  164.7145 C.ar    1  UNL1        0.0427
     24 C         145.5128  141.1081  163.6994 C.ar    1  UNL1        0.1217
     25 N         145.2250  142.5045  163.2334 N.ar    1  UNL1       -0.1676
     26 C         143.7917  139.1528  155.3117 C.3     1  UNL1        0.1007
     27 C         143.2974  137.7935  155.7092 C.ar    1  UNL1        0.0129
     28 C         141.9126  137.4621  156.1808 C.ar    1  UNL1        0.0176
     29 C         141.8604  135.9908  156.4679 C.ar    1  UNL1        0.0799
     30 N         143.2130  135.4128  156.1736 N.ar    1  UNL1       -0.3038
     31 C         144.1010  136.5270  155.7047 C.ar    1  UNL1        0.0772
     32 C         143.6080  133.9734  156.3222 C.ar    1  UNL1        0.0640
     33 C         143.3242  132.9999  155.2170 C.ar    1  UNL1        0.0175
     34 C         143.7193  131.5605  155.3655 C.ar    1  UNL1        0.0053
     35 C         144.3982  131.0947  156.6193 C.ar    1  UNL1        0.0715
     36 C         144.6820  132.0682  157.7246 C.ar    1  UNL1        0.0053
     37 C         144.2869  133.5076  157.5760 C.ar    1  UNL1        0.0175
     38 C         144.7932  129.6553  156.7679 C.3     1  UNL1        0.4186
     39 F         145.1883  128.2159  156.9164 F       1  UNL1       -0.1659
     40 F         144.3615  129.6851  158.2041 F       1  UNL1       -0.1659
     41 F         145.2250  129.6255  155.3316 F       1  UNL1       -0.1659
@<TRIPOS>BOND
     1     7     8    2
     2     8     9   am
     3     9     1    1
     4     1     2    1
     5     2     3    1
     6     3     4    1
     7     4    26    1
     8    26    27    1
     9    27    28   ar
    10    28    29   ar
    11    29    30   ar
    12    30    32    1
    13    32    33   ar
    14    33    34   ar
    15    34    35   ar
    16    35    38    1
    17    38    39    1
    18    38    40    1
    19    38    41    1
    20    35    36   ar
    21    36    37   ar
    22    30    31   ar
    23     4     5    1
    24     5     6    1
    25     8    10   am
    26    10    13    1
    27    13    20    1
    28    20    21    1
    29    21    22   ar
    30    22    23   ar
    31    23    24   ar
    32    24    25   ar
    33    13    14    1
    34    14    15   ar
    35    15    16   ar
    36    16    17   ar
    37    17    18   ar
    38    18    19   ar
    39     6     1    1
    40    25    21   ar
    41    19    14   ar
    42    31    27   ar
    43    37    32   ar
    44     9    11    1
    45    10    12    1
@<TRIPOS>MOLECULE
*****
 41 45 0 0 0
SMALL
GASTEIGER

@<TRIPOS>ATOM
      1 C         141.1612  143.6527  157.8532 C.3     1  UNL1        0.0758
      2 C         139.7242  143.9773  157.5714 C.3     1  UNL1        0.0370
      3 C         138.9681  143.1974  156.5371 C.3     1  UNL1        0.0741
      4 N         139.6490  142.0928  155.7845 N.3     1  UNL1       -0.2688
      5 C         141.0860  141.7682  156.0663 C.3     1  UNL1        0.0741
      6 C         141.8421  142.5481  157.1007 C.3     1  UNL1        0.0370
      7 O         141.0166  142.8493  160.7400 O.2     1  UNL1       -0.2528
      8 C         141.8451  144.0309  160.3310 C.2     1  UNL1        0.3010
      9 N         141.9175  144.4326  158.8876 N.am    1  UNL1       -0.2905
     10 N         142.6014  144.8109  161.3654 N.am    1  UNL1       -0.2848
     11 H         142.4613  145.2081  158.6191 H       1  UNL1        0.1509
     12 H         143.1452  145.5864  161.0969 H       1  UNL1        0.1513
     13 C         142.5290  144.4092  162.8087 C.3     1  UNL1        0.1199
     14 C         143.3772  143.2811  163.3166 C.ar    1  UNL1       -0.0025
     15 C         144.7122  143.0057  162.6907 C.ar    1  UNL1       -0.0026
     16 C         145.5604  141.8776  163.1986 C.ar    1  UNL1       -0.0003
     17 C         145.0735  141.0248  164.3324 C.ar    1  UNL1       -0.0000
     18 C         143.7385  141.3001  164.9584 C.ar    1  UNL1       -0.0003
     19 C         142.8903  142.4283  164.4505 C.ar    1  UNL1       -0.0026
     20 C         141.6086  145.1356  163.7442 C.3     1  UNL1        0.1515
     21 N         140.1624  144.7462  163.8263 N.ar    1  UNL1       -0.2474
     22 C         139.4805  144.1329  165.0132 C.ar    1  UNL1        0.0968
     23 C         138.0408  143.9093  164.6563 C.ar    1  UNL1        0.0427
     24 C         137.8330  144.3844  163.2488 C.ar    1  UNL1        0.1217
     25 N         139.1442  144.9016  162.7358 N.ar    1  UNL1       -0.1676
     26 C         138.8927  141.3129  154.7501 C.3     1  UNL1        0.1007
     27 C         137.3950  141.3821  154.7053 C.ar    1  UNL1        0.0129
     28 C         136.5803  142.3050  153.8483 C.ar    1  UNL1        0.0176
     29 C         135.1308  142.0338  154.1229 C.ar    1  UNL1        0.0799
     30 N         135.0497  140.9432  155.1496 N.ar    1  UNL1       -0.3038
     31 C         136.4490  140.5405  155.5095 C.ar    1  UNL1        0.0772
     32 C         133.7903  140.3582  155.7168 C.ar    1  UNL1        0.0640
     33 C         132.5131  141.1435  155.6744 C.ar    1  UNL1        0.0175
     34 C         131.2537  140.5585  156.2416 C.ar    1  UNL1        0.0053
     35 C         131.2716  139.1882  156.8512 C.ar    1  UNL1        0.0715
     36 C         132.5488  138.4028  156.8937 C.ar    1  UNL1        0.0053
     37 C         133.8082  138.9878  156.3265 C.ar    1  UNL1        0.0175
     38 C         130.0122  138.6031  157.4184 C.3     1  UNL1        0.4186
     39 F         128.7528  138.0182  157.9857 F       1  UNL1       -0.1659
     40 F         130.1763  137.3984  156.5400 F       1  UNL1       -0.1659
     41 F         129.8482  139.8079  158.2969 F       1  UNL1       -0.1659
@<TRIPOS>BOND
     1     7     8    2
     2     8     9   am
     3     9     1    1
     4     1     2    1
     5     2     3    1
     6     3     4    1
     7     4    26    1
     8    26    27    1
     9    27    28   ar
    10    28    29   ar
    11    29    30   ar
    12    30    32    1
    13    32    33   ar
    14    33    34   ar
    15    34    35   ar
    16    35    38    1
    17    38    39    1
    18    38    40    1
    19    38    41    1
    20    35    36   ar
    21    36    37   ar
    22    30    31   ar
    23     4     5    1
    24     5     6    1
    25     8    10   am
    26    10    13    1
    27    13    20    1
    28    20    21    1
    29    21    22   ar
    30    22    23   ar
    31    23    24   ar
    32    24    25   ar
    33    13    14    1
    34    14    15   ar
    35    15    16   ar
    36    16    17   ar
    37    17    18   ar
    38    18    19   ar
    39     6     1    1
    40    25    21   ar
    41    19    14   ar
    42    31    27   ar
    43    37    32   ar
    44     9    11    1
    45    10    12    1
@<TRIPOS>MOLECULE
*****
 41 45 0 0 0
SMALL
GASTEIGER

@<TRIPOS>ATOM
      1 C         141.0353  142.3440  157.6720 C.3     1  UNL1        0.0758
      2 C         139.5524  142.1635  157.5365 C.3     1  UNL1        0.0370
      3 C         139.0056  140.9775  156.7989 C.3     1  UNL1        0.0741
      4 N         139.9417  139.9719  156.1967 N.3     1  UNL1       -0.2688
      5 C         141.4246  140.1524  156.3322 C.3     1  UNL1        0.0741
      6 C         141.9714  141.3384  157.0699 C.3     1  UNL1        0.0370
      7 O         141.0943  142.3484  160.6715 O.2     1  UNL1       -0.2528
      8 C         141.6117  143.5323  159.9094 C.2     1  UNL1        0.3010
      9 N         141.5822  143.5301  158.4097 N.am    1  UNL1       -0.2905
     10 N         142.1586  144.7184  160.6471 N.am    1  UNL1       -0.2848
     11 H         141.9218  144.3071  157.9096 H       1  UNL1        0.1509
     12 H         142.4982  145.4954  160.1470 H       1  UNL1        0.1513
     13 C         142.1881  144.7206  162.1468 C.3     1  UNL1        0.1199
     14 C         143.2288  143.9251  162.8776 C.ar    1  UNL1       -0.0025
     15 C         144.1879  143.0624  162.1121 C.ar    1  UNL1       -0.0026
     16 C         145.2287  142.2669  162.8429 C.ar    1  UNL1       -0.0003
     17 C         145.3103  142.3341  164.3391 C.ar    1  UNL1       -0.0000
     18 C         144.3513  143.1968  165.1046 C.ar    1  UNL1       -0.0003
     19 C         143.3105  143.9923  164.3738 C.ar    1  UNL1       -0.0026
     20 C         141.1769  145.5182  162.9157 C.3     1  UNL1        0.1515
     21 N         139.8388  144.9219  163.2376 N.ar    1  UNL1       -0.2474
     22 C         139.2594  144.7450  164.6099 C.ar    1  UNL1        0.0968
     23 C         137.9076  144.1115  164.4642 C.ar    1  UNL1        0.0427
     24 C         137.6514  143.8968  163.0019 C.ar    1  UNL1        0.1217
     25 N         138.8450  144.3976  162.2438 N.ar    1  UNL1       -0.1676
     26 C         139.3948  138.7858  155.4590 C.3     1  UNL1        0.1007
     27 C         140.2875  137.6228  155.1420 C.ar    1  UNL1        0.0129
     28 C         140.8493  137.2846  153.7930 C.ar    1  UNL1        0.0176
     29 C         141.6842  136.0466  153.9356 C.ar    1  UNL1        0.0799
     30 N         141.6383  135.6196  155.3729 N.ar    1  UNL1       -0.3038
     31 C         140.7751  136.5938  156.1185 C.ar    1  UNL1        0.0772
     32 C         142.3336  134.4278  155.9613 C.ar    1  UNL1        0.0640
     33 C         143.5447  134.6171  156.8256 C.ar    1  UNL1        0.0175
     34 C         144.2400  133.4253  157.4140 C.ar    1  UNL1        0.0053
     35 C         143.7241  132.0442  157.1379 C.ar    1  UNL1        0.0715
     36 C         142.5130  131.8548  156.2735 C.ar    1  UNL1        0.0053
     37 C         141.8177  133.0466  155.6852 C.ar    1  UNL1        0.0175
     38 C         144.4194  130.8524  157.7263 C.3     1  UNL1        0.4186
     39 F         145.1146  129.6605  158.3146 F       1  UNL1       -0.1659
     40 F         145.4427  131.7561  158.3476 F       1  UNL1       -0.1659
     41 F         143.3961  129.9486  157.1049 F       1  UNL1       -0.1659
@<TRIPOS>BOND
     1     7     8    2
     2     8     9   am
     3     9     1    1
     4     1     2    1
     5     2     3    1
     6     3     4    1
     7     4    26    1
     8    26    27    1
     9    27    28   ar
    10    28    29   ar
    11    29    30   ar
    12    30    32    1
    13    32    33   ar
    14    33    34   ar
    15    34    35   ar
    16    35    38    1
    17    38    39    1
    18    38    40    1
    19    38    41    1
    20    35    36   ar
    21    36    37   ar
    22    30    31   ar
    23     4     5    1
    24     5     6    1
    25     8    10   am
    26    10    13    1
    27    13    20    1
    28    20    21    1
    29    21    22   ar
    30    22    23   ar
    31    23    24   ar
    32    24    25   ar
    33    13    14    1
    34    14    15   ar
    35    15    16   ar
    36    16    17   ar
    37    17    18   ar
    38    18    19   ar
    39     6     1    1
    40    25    21   ar
    41    19    14   ar
    42    31    27   ar
    43    37    32   ar
    44     9    11    1
    45    10    12    1
@<TRIPOS>MOLECULE
*****
 41 45 0 0 0
SMALL
GASTEIGER

@<TRIPOS>ATOM
      1 C         143.4124  139.5341  160.9619 C.3     1  UNL1        0.0758
      2 C         143.7631  140.5459  159.9116 C.3     1  UNL1        0.0370
      3 C         143.6780  140.1798  158.4595 C.3     1  UNL1        0.0741
      4 N         143.2422  138.8019  158.0577 N.3     1  UNL1       -0.2688
      5 C         142.8915  137.7901  159.1080 C.3     1  UNL1        0.0741
      6 C         142.9766  138.1561  160.5601 C.3     1  UNL1        0.0370
      7 O         141.0948  140.8827  162.3072 O.2     1  UNL1       -0.2528
      8 C         142.3387  140.5744  163.0868 C.2     1  UNL1        0.3010
      9 N         143.4974  139.9001  162.4141 N.am    1  UNL1       -0.2905
     10 N         142.4237  140.9405  164.5390 N.am    1  UNL1       -0.2848
     11 H         144.3139  139.6978  162.9258 H       1  UNL1        0.1509
     12 H         143.2401  140.7381  165.0506 H       1  UNL1        0.1513
     13 C         141.2649  141.6148  165.2116 C.3     1  UNL1        0.1199
     14 C         140.2409  140.7962  165.9405 C.ar    1  UNL1       -0.0025
     15 C         139.1896  140.0523  165.1715 C.ar    1  UNL1       -0.0026
     16 C         138.1656  139.2337  165.9004 C.ar    1  UNL1       -0.0003
     17 C         138.1929  139.1591  167.3983 C.ar    1  UNL1       -0.0000
     18 C         139.2441  139.9029  168.1673 C.ar    1  UNL1       -0.0003
     19 C         140.2682  140.7215  167.4384 C.ar    1  UNL1       -0.0026
     20 C         141.1301  143.1077  165.1553 C.3     1  UNL1        0.1515
     21 N         140.1933  143.7395  164.1689 N.ar    1  UNL1       -0.2474
     22 C         138.6981  143.7874  164.2790 C.ar    1  UNL1        0.0968
     23 C         138.1678  144.5118  163.0773 C.ar    1  UNL1        0.0427
     24 C         139.3353  144.9116  162.2245 C.ar    1  UNL1        0.1217
     25 N         140.5871  144.4343  162.8991 N.ar    1  UNL1       -0.1676
     26 C         143.1572  138.4358  156.6055 C.3     1  UNL1        0.1007
     27 C         142.7455  137.0505  156.2041 C.ar    1  UNL1        0.0129
     28 C         141.3581  136.6147  155.8364 C.ar    1  UNL1        0.0176
     29 C         141.4040  135.1525  155.5050 C.ar    1  UNL1        0.0799
     30 N         142.8198  134.6845  155.6679 N.ar    1  UNL1       -0.3038
     31 C         143.6489  135.8575  156.1000 C.ar    1  UNL1        0.0772
     32 C         143.3189  133.2886  155.4389 C.ar    1  UNL1        0.0640
     33 C         142.6875  132.4301  154.3835 C.ar    1  UNL1        0.0175
     34 C         143.1866  131.0342  154.1545 C.ar    1  UNL1        0.0053
     35 C         144.3170  130.4969  154.9810 C.ar    1  UNL1        0.0715
     36 C         144.9485  131.3554  156.0366 C.ar    1  UNL1        0.0053
     37 C         144.4494  132.7513  156.2655 C.ar    1  UNL1        0.0175
     38 C         144.8161  129.1010  154.7521 C.3     1  UNL1        0.4186
     39 F         145.3153  127.7052  154.5230 F       1  UNL1       -0.1659
     40 F         144.2431  128.6796  156.0727 F       1  UNL1       -0.1659
     41 F         145.3892  129.5225  153.4314 F       1  UNL1       -0.1659
@<TRIPOS>BOND
     1     7     8    2
     2     8     9   am
     3     9     1    1
     4     1     2    1
     5     2     3    1
     6     3     4    1
     7     4    26    1
     8    26    27    1
     9    27    28   ar
    10    28    29   ar
    11    29    30   ar
    12    30    32    1
    13    32    33   ar
    14    33    34   ar
    15    34    35   ar
    16    35    38    1
    17    38    39    1
    18    38    40    1
    19    38    41    1
    20    35    36   ar
    21    36    37   ar
    22    30    31   ar
    23     4     5    1
    24     5     6    1
    25     8    10   am
    26    10    13    1
    27    13    20    1
    28    20    21    1
    29    21    22   ar
    30    22    23   ar
    31    23    24   ar
    32    24    25   ar
    33    13    14    1
    34    14    15   ar
    35    15    16   ar
    36    16    17   ar
    37    17    18   ar
    38    18    19   ar
    39     6     1    1
    40    25    21   ar
    41    19    14   ar
    42    31    27   ar
    43    37    32   ar
    44     9    11    1
    45    10    12    1
@<TRIPOS>MOLECULE
*****
 41 45 0 0 0
SMALL
GASTEIGER

@<TRIPOS>ATOM
      1 C         138.5343  142.3404  159.3848 C.3     1  UNL1        0.0758
      2 C         139.3337  143.2008  158.4517 C.3     1  UNL1        0.0370
      3 C         139.7926  142.6521  157.1333 C.3     1  UNL1        0.0741
      4 N         139.4519  141.2431  156.7479 N.3     1  UNL1       -0.2688
      5 C         138.6525  140.3827  157.6809 C.3     1  UNL1        0.0741
      6 C         138.1936  140.9314  158.9993 C.3     1  UNL1        0.0370
      7 O         140.2351  141.9864  161.8306 O.2     1  UNL1       -0.2528
      8 C         138.9258  142.7121  161.9262 C.2     1  UNL1        0.3010
      9 N         138.0754  142.8891  160.7033 N.am    1  UNL1       -0.2905
     10 N         138.4669  143.2608  163.2447 N.am    1  UNL1       -0.2848
     11 H         137.2160  143.3654  160.7660 H       1  UNL1        0.1509
     12 H         137.6076  143.7371  163.3074 H       1  UNL1        0.1513
     13 C         139.3173  143.0838  164.4675 C.3     1  UNL1        0.1199
     14 C         139.1827  141.8444  165.3016 C.ar    1  UNL1       -0.0025
     15 C         138.2580  140.7456  164.8685 C.ar    1  UNL1       -0.0026
     16 C         138.1234  139.5062  165.7026 C.ar    1  UNL1       -0.0003
     17 C         138.9135  139.3655  166.9699 C.ar    1  UNL1       -0.0000
     18 C         139.8382  140.4643  167.4030 C.ar    1  UNL1       -0.0003
     19 C         139.9728  141.7038  166.5689 C.ar    1  UNL1       -0.0026
     20 C         140.3023  144.1462  164.8563 C.3     1  UNL1        0.1515
     21 N         141.6909  144.1251  164.2895 N.ar    1  UNL1       -0.2474
     22 C         142.4183  145.2944  163.6949 C.ar    1  UNL1        0.0968
     23 C         143.7729  144.8230  163.2556 C.ar    1  UNL1        0.0427
     24 C         143.8826  143.3623  163.5788 C.ar    1  UNL1        0.1217
     25 N         142.5959  142.9310  164.2177 N.ar    1  UNL1       -0.1676
     26 C         139.9108  140.6944  155.4293 C.3     1  UNL1        0.1007
     27 C         140.0100  139.2113  155.2277 C.ar    1  UNL1        0.0129
     28 C         138.9481  138.3281  154.6430 C.ar    1  UNL1        0.0176
     29 C         139.4703  136.9220  154.6293 C.ar    1  UNL1        0.0799
     30 N         140.8551  136.9362  155.2057 N.ar    1  UNL1       -0.3038
     31 C         141.1887  138.3511  155.5755 C.ar    1  UNL1        0.0772
     32 C         141.7493  135.7448  155.3814 C.ar    1  UNL1        0.0640
     33 C         141.4438  134.4651  154.6612 C.ar    1  UNL1        0.0175
     34 C         142.3380  133.2736  154.8369 C.ar    1  UNL1        0.0053
     35 C         143.5377  133.3620  155.7328 C.ar    1  UNL1        0.0715
     36 C         143.8433  134.6417  156.4530 C.ar    1  UNL1        0.0053
     37 C         142.9491  135.8332  156.2774 C.ar    1  UNL1        0.0175
     38 C         144.4319  132.1705  155.9085 C.3     1  UNL1        0.4186
     39 F         145.3261  130.9791  156.0841 F       1  UNL1       -0.1659
     40 F         144.8839  132.7054  157.2350 F       1  UNL1       -0.1659
     41 F         143.9799  131.6356  154.5819 F       1  UNL1       -0.1659
@<TRIPOS>BOND
     1     7     8    2
     2     8     9   am
     3     9     1    1
     4     1     2    1
     5     2     3    1
     6     3     4    1
     7     4    26    1
     8    26    27    1
     9    27    28   ar
    10    28    29   ar
    11    29    30   ar
    12    30    32    1
    13    32    33   ar
    14    33    34   ar
    15    34    35   ar
    16    35    38    1
    17    38    39    1
    18    38    40    1
    19    38    41    1
    20    35    36   ar
    21    36    37   ar
    22    30    31   ar
    23     4     5    1
    24     5     6    1
    25     8    10   am
    26    10    13    1
    27    13    20    1
    28    20    21    1
    29    21    22   ar
    30    22    23   ar
    31    23    24   ar
    32    24    25   ar
    33    13    14    1
    34    14    15   ar
    35    15    16   ar
    36    16    17   ar
    37    17    18   ar
    38    18    19   ar
    39     6     1    1
    40    25    21   ar
    41    19    14   ar
    42    31    27   ar
    43    37    32   ar
    44     9    11    1
    45    10    12    1
