@<TRIPOS>MOLECULE
*****
 42 46 0 0 0
SMALL
GASTEIGER

@<TRIPOS>ATOM
      1 C         140.6258  141.6822  164.7254 C.ar    1  UNL1        0.1255
      2 N         141.7042  141.2590  163.7726 N.ar    1  UNL1       -0.2304
      3 C         141.4586  141.9439  162.4608 C.ar    1  UNL1        0.1035
      4 C         140.2285  142.7904  162.6029 C.ar    1  UNL1        0.1142
      5 C         139.5105  143.6875  161.6387 C.ar    1  UNL1        0.1432
      6 N         140.0252  143.8492  160.2391 N.pl3   1  UNL1       -0.3414
      7 N         138.2778  144.4230  162.0741 N.ar    1  UNL1       -0.2265
      8 C         137.7631  144.2613  163.4737 C.ar    1  UNL1        0.1193
      9 C         138.4811  143.3641  164.4379 C.ar    1  UNL1        0.1020
     10 N         139.7138  142.6287  164.0025 N.ar    1  UNL1       -0.2884
     11 H         140.8343  143.3665  159.9533 H       1  UNL1        0.1438
     12 H         139.5540  144.4381  159.6063 H       1  UNL1        0.1438
     13 C         142.0332  141.4494  171.1062 C.3     1  UNL1        0.0948
     14 C         142.1748  141.8944  169.6807 C.2     1  UNL1        0.2261
     15 O         143.2323  142.8905  169.3075 O.2     1  UNL1       -0.2749
     16 N         141.2587  141.3433  168.6285 N.am    1  UNL1       -0.2791
     17 C         140.2012  140.3472  169.0017 C.3     1  UNL1        0.0934
     18 C         139.2851  139.7961  167.9495 C.3     1  UNL1        0.0220
     19 C         139.4266  140.2411  166.5241 C.3     1  UNL1        0.0110
     20 C         140.4842  141.2372  166.1509 C.3     1  UNL1        0.0771
     21 C         141.4002  141.7883  167.2031 C.3     1  UNL1        0.1008
     22 C         142.2962  141.8064  161.2241 C.ar    1  UNL1        0.0467
     23 C         141.9735  140.7455  160.2138 C.ar    1  UNL1        0.0039
     24 C         142.8111  140.6080  158.9770 C.ar    1  UNL1        0.0047
     25 C         143.9713  141.5313  158.7505 C.ar    1  UNL1        0.0559
     26 C         144.2940  142.5921  159.7607 C.ar    1  UNL1        0.0342
     27 C         143.4564  142.7296  160.9975 C.ar    1  UNL1        0.1417
     28 F         143.7792  143.7905  162.0077 F       1  UNL1       -0.2041
     29 C         144.8089  141.3938  157.5138 C.2     1  UNL1        0.2506
     30 O         144.9893  140.0482  156.8759 O.2     1  UNL1       -0.2698
     31 N         145.4661  142.6018  156.9150 N.am    1  UNL1       -0.2658
     32 H         145.3477  143.4850  157.3337 H       1  UNL1        0.1566
     33 C         146.3037  142.4644  155.6782 C.ar    1  UNL1        0.1343
     34 C         147.7797  142.2236  155.7948 C.ar    1  UNL1        0.0383
     35 C         148.6172  142.0862  154.5580 C.ar    1  UNL1        0.0757
     36 C         147.9788  142.1896  153.2046 C.ar    1  UNL1        0.0246
     37 C         146.5028  142.4304  153.0880 C.ar    1  UNL1        0.1003
     38 N         145.6653  142.5678  154.3248 N.ar    1  UNL1       -0.2290
     39 C         150.0931  141.8454  154.6747 C.3     1  UNL1        0.4187
     40 F         151.5691  141.6046  154.7915 F       1  UNL1       -0.1659
     41 F         150.1797  141.6560  153.1892 F       1  UNL1       -0.1659
     42 F         150.0065  142.0348  156.1602 F       1  UNL1       -0.1659
@<TRIPOS>BOND
     1    13    14    1
     2    14    15    2
     3    14    16   am
     4    16    17    1
     5    17    18    1
     6    18    19    1
     7    19    20    1
     8    20     1    1
     9     1     2   ar
    10     2     3   ar
    11     3    22    1
    12    22    23   ar
    13    23    24   ar
    14    24    25   ar
    15    25    29    1
    16    29    30    2
    17    29    31   am
    18    31    33    1
    19    33    34   ar
    20    34    35   ar
    21    35    39    1
    22    39    40    1
    23    39    41    1
    24    39    42    1
    25    35    36   ar
    26    36    37   ar
    27    37    38   ar
    28    25    26   ar
    29    26    27   ar
    30    27    28    1
    31     3     4   ar
    32     4     5   ar
    33     5     6    1
    34     5     7   ar
    35     7     8   ar
    36     8     9   ar
    37     9    10   ar
    38    20    21    1
    39    21    16    1
    40    10     1   ar
    41    27    22   ar
    42    10     4   ar
    43    38    33   ar
    44    31    32    1
    45     6    11    1
    46     6    12    1
@<TRIPOS>MOLECULE
*****
 42 46 0 0 0
SMALL
GASTEIGER

@<TRIPOS>ATOM
      1 C         142.8738  136.5093  157.7530 C.ar    1  UNL1        0.1255
      2 N         142.6274  136.4327  159.2306 N.ar    1  UNL1       -0.2304
      3 C         142.5746  137.8333  159.7649 C.ar    1  UNL1        0.1035
      4 C         142.7884  138.7756  158.6176 C.ar    1  UNL1        0.1142
      5 C         142.8387  140.2730  158.5444 C.ar    1  UNL1        0.1432
      6 N         142.6538  141.0913  159.7878 N.pl3   1  UNL1       -0.3414
      7 N         143.0738  140.9520  157.2277 N.ar    1  UNL1       -0.2265
      8 C         143.2587  140.1337  155.9843 C.ar    1  UNL1        0.1193
      9 C         143.2085  138.6363  156.0575 C.ar    1  UNL1        0.1020
     10 N         142.9734  137.9572  157.3741 N.ar    1  UNL1       -0.2884
     11 H         142.4994  140.6456  160.6520 H       1  UNL1        0.1438
     12 H         142.6867  142.0740  159.7397 H       1  UNL1        0.1438
     13 C         144.9484  130.6564  155.7062 C.3     1  UNL1        0.0948
     14 C         144.8234  131.8230  156.6408 C.2     1  UNL1        0.2261
     15 O         145.5483  131.8129  157.9540 O.2     1  UNL1       -0.2749
     16 N         143.9735  132.9996  156.2622 N.am    1  UNL1       -0.2791
     17 C         143.2487  133.0097  154.9491 C.3     1  UNL1        0.0934
     18 C         142.3989  134.1864  154.5706 C.3     1  UNL1        0.0220
     19 C         142.2739  135.3529  155.5051 C.3     1  UNL1        0.0110
     20 C         142.9988  135.3428  156.8183 C.3     1  UNL1        0.0771
     21 C         143.8486  134.1661  157.1969 C.3     1  UNL1        0.1008
     22 C         142.3479  138.2233  161.1955 C.ar    1  UNL1        0.0467
     23 C         143.5159  138.5515  162.0776 C.ar    1  UNL1        0.0039
     24 C         143.2892  138.9414  163.5082 C.ar    1  UNL1        0.0047
     25 C         141.8944  139.0031  164.0567 C.ar    1  UNL1        0.0559
     26 C         140.7264  138.6749  163.1746 C.ar    1  UNL1        0.0342
     27 C         140.9532  138.2850  161.7440 C.ar    1  UNL1        0.1417
     28 F         139.7851  137.9568  160.8620 F       1  UNL1       -0.2041
     29 C         141.6676  139.3930  165.4873 C.2     1  UNL1        0.2506
     30 O         140.3027  139.2572  166.0944 O.2     1  UNL1       -0.2698
     31 N         142.8058  139.9188  166.3107 N.am    1  UNL1       -0.2658
     32 H         143.7016  140.0080  165.9122 H       1  UNL1        0.1566
     33 C         142.5791  140.3088  167.7413 C.ar    1  UNL1        0.1343
     34 C         142.0231  141.6624  168.0707 C.ar    1  UNL1        0.0383
     35 C         141.7964  142.0522  169.5013 C.ar    1  UNL1        0.0757
     36 C         142.1258  141.0885  170.6026 C.ar    1  UNL1        0.0246
     37 C         142.6819  139.7349  170.2731 C.ar    1  UNL1        0.1003
     38 N         142.9085  139.3450  168.8425 N.ar    1  UNL1       -0.2290
     39 C         141.2404  143.4059  169.8307 C.3     1  UNL1        0.4187
     40 F         140.6844  144.7596  170.1600 F       1  UNL1       -0.1659
     41 F         139.9077  142.9924  169.2802 F       1  UNL1       -0.1659
     42 F         142.5731  143.8194  170.3811 F       1  UNL1       -0.1659
@<TRIPOS>BOND
     1    13    14    1
     2    14    15    2
     3    14    16   am
     4    16    17    1
     5    17    18    1
     6    18    19    1
     7    19    20    1
     8    20     1    1
     9     1     2   ar
    10     2     3   ar
    11     3    22    1
    12    22    23   ar
    13    23    24   ar
    14    24    25   ar
    15    25    29    1
    16    29    30    2
    17    29    31   am
    18    31    33    1
    19    33    34   ar
    20    34    35   ar
    21    35    39    1
    22    39    40    1
    23    39    41    1
    24    39    42    1
    25    35    36   ar
    26    36    37   ar
    27    37    38   ar
    28    25    26   ar
    29    26    27   ar
    30    27    28    1
    31     3     4   ar
    32     4     5   ar
    33     5     6    1
    34     5     7   ar
    35     7     8   ar
    36     8     9   ar
    37     9    10   ar
    38    20    21    1
    39    21    16    1
    40    10     1   ar
    41    27    22   ar
    42    10     4   ar
    43    38    33   ar
    44    31    32    1
    45     6    11    1
    46     6    12    1
@<TRIPOS>MOLECULE
*****
 42 46 0 0 0
SMALL
GASTEIGER

@<TRIPOS>ATOM
      1 C         140.5328  140.7755  165.1987 C.ar    1  UNL1        0.1255
      2 N         140.5439  142.0247  164.3684 N.ar    1  UNL1       -0.2304
      3 C         140.7327  141.6267  162.9346 C.ar    1  UNL1        0.1035
      4 C         140.8383  140.1314  162.8786 C.ar    1  UNL1        0.1142
      5 C         141.0310  139.1809  161.7343 C.ar    1  UNL1        0.1432
      6 N         141.1545  139.7069  160.3350 N.pl3   1  UNL1       -0.3414
      7 N         141.1001  137.7044  161.9893 N.ar    1  UNL1       -0.2265
      8 C         140.9766  137.1784  163.3886 C.ar    1  UNL1        0.1193
      9 C         140.7839  138.1289  164.5329 C.ar    1  UNL1        0.1020
     10 N         140.7147  139.6054  164.2779 N.ar    1  UNL1       -0.2884
     11 H         141.1091  140.6760  160.1677 H       1  UNL1        0.1438
     12 H         141.2810  139.0831  159.5840 H       1  UNL1        0.1438
     13 C         141.9994  141.9731  171.4568 C.3     1  UNL1        0.0948
     14 C         142.1635  142.0404  169.9673 C.2     1  UNL1        0.2261
     15 O         143.3072  142.8074  169.3728 O.2     1  UNL1       -0.2749
     16 N         141.1839  141.3406  169.0725 N.am    1  UNL1       -0.2791
     17 C         140.0403  140.5736  169.6670 C.3     1  UNL1        0.0934
     18 C         139.0607  139.8738  168.7721 C.3     1  UNL1        0.0220
     19 C         139.2248  139.9411  167.2827 C.3     1  UNL1        0.0110
     20 C         140.3686  140.7082  166.6881 C.3     1  UNL1        0.0771
     21 C         141.3481  141.4079  167.5830 C.3     1  UNL1        0.1008
     22 C         140.8034  142.5600  161.7625 C.ar    1  UNL1        0.0467
     23 C         142.0953  143.2437  161.4251 C.ar    1  UNL1        0.0039
     24 C         142.1661  144.1771  160.2529 C.ar    1  UNL1        0.0047
     25 C         140.9451  144.4267  159.4182 C.ar    1  UNL1        0.0559
     26 C         139.6533  143.7430  159.7556 C.ar    1  UNL1        0.0342
     27 C         139.5825  142.8097  160.9277 C.ar    1  UNL1        0.1417
     28 F         138.2906  142.1260  161.2650 F       1  UNL1       -0.2041
     29 C         141.0159  145.3601  158.2461 C.2     1  UNL1        0.2506
     30 O         142.2870  146.1002  157.9524 O.2     1  UNL1       -0.2698
     31 N         139.8154  145.5532  157.3677 N.am    1  UNL1       -0.2658
     32 H         138.9811  145.0675  157.5606 H       1  UNL1        0.1566
     33 C         139.8861  146.4866  156.1956 C.ar    1  UNL1        0.1343
     34 C         139.2379  147.8371  156.2720 C.ar    1  UNL1        0.0383
     35 C         139.3086  148.7704  155.0998 C.ar    1  UNL1        0.0757
     36 C         140.0275  148.3531  153.8512 C.ar    1  UNL1        0.0246
     37 C         140.6758  147.0026  153.7748 C.ar    1  UNL1        0.1003
     38 N         140.6050  146.0693  154.9470 N.ar    1  UNL1       -0.2290
     39 C         138.6604  150.1209  155.1762 C.3     1  UNL1        0.4187
     40 F         138.0120  151.4715  155.2528 F       1  UNL1       -0.1659
     41 F         139.2023  150.4580  153.8188 F       1  UNL1       -0.1659
     42 F         138.1183  149.7838  156.5337 F       1  UNL1       -0.1659
@<TRIPOS>BOND
     1    13    14    1
     2    14    15    2
     3    14    16   am
     4    16    17    1
     5    17    18    1
     6    18    19    1
     7    19    20    1
     8    20     1    1
     9     1     2   ar
    10     2     3   ar
    11     3    22    1
    12    22    23   ar
    13    23    24   ar
    14    24    25   ar
    15    25    29    1
    16    29    30    2
    17    29    31   am
    18    31    33    1
    19    33    34   ar
    20    34    35   ar
    21    35    39    1
    22    39    40    1
    23    39    41    1
    24    39    42    1
    25    35    36   ar
    26    36    37   ar
    27    37    38   ar
    28    25    26   ar
    29    26    27   ar
    30    27    28    1
    31     3     4   ar
    32     4     5   ar
    33     5     6    1
    34     5     7   ar
    35     7     8   ar
    36     8     9   ar
    37     9    10   ar
    38    20    21    1
    39    21    16    1
    40    10     1   ar
    41    27    22   ar
    42    10     4   ar
    43    38    33   ar
    44    31    32    1
    45     6    11    1
    46     6    12    1
@<TRIPOS>MOLECULE
*****
 42 46 0 0 0
SMALL
GASTEIGER

@<TRIPOS>ATOM
      1 C         139.6204  144.6841  157.1126 C.ar    1  UNL1        0.1255
      2 N         140.1078  144.7347  158.5303 N.ar    1  UNL1       -0.2304
      3 C         139.6615  143.4790  159.2189 C.ar    1  UNL1        0.1035
      4 C         138.8983  142.6524  158.2268 C.ar    1  UNL1        0.1142
      5 C         138.2233  141.3177  158.3406 C.ar    1  UNL1        0.1432
      6 N         138.2487  140.5729  159.6424 N.pl3   1  UNL1       -0.3414
      7 N         137.5228  140.7278  157.1527 N.ar    1  UNL1       -0.2265
      8 C         137.4974  141.4726  155.8509 C.ar    1  UNL1        0.1193
      9 C         138.1724  142.8072  155.7371 C.ar    1  UNL1        0.1020
     10 N         138.8729  143.3971  156.9250 N.ar    1  UNL1       -0.2884
     11 H         138.7084  140.9601  160.4221 H       1  UNL1        0.1438
     12 H         137.8056  139.6969  159.7171 H       1  UNL1        0.1438
     13 C         139.1957  150.6059  154.3737 C.3     1  UNL1        0.0948
     14 C         138.9745  149.5542  155.4202 C.2     1  UNL1        0.2261
     15 O         138.2092  149.8859  156.6668 O.2     1  UNL1       -0.2749
     16 N         139.5187  148.1707  155.2199 N.am    1  UNL1       -0.2791
     17 C         140.2840  147.8390  153.9732 C.3     1  UNL1        0.0934
     18 C         140.8281  146.4556  153.7730 C.3     1  UNL1        0.0220
     19 C         140.6069  145.4040  154.8194 C.3     1  UNL1        0.0110
     20 C         139.8416  145.7357  156.0661 C.3     1  UNL1        0.0771
     21 C         139.2975  147.1191  156.2663 C.3     1  UNL1        0.1008
     22 C         139.9311  143.1141  160.6486 C.ar    1  UNL1        0.0467
     23 C         138.9861  143.5560  161.7265 C.ar    1  UNL1        0.0039
     24 C         139.2557  143.1911  163.1563 C.ar    1  UNL1        0.0047
     25 C         140.4703  142.3843  163.5082 C.ar    1  UNL1        0.0559
     26 C         141.4152  141.9424  162.4303 C.ar    1  UNL1        0.0342
     27 C         141.1456  142.3073  161.0006 C.ar    1  UNL1        0.1417
     28 F         142.0907  141.8654  159.9228 F       1  UNL1       -0.2041
     29 C         140.7399  142.0194  164.9379 C.2     1  UNL1        0.2506
     30 O         139.6441  142.1206  165.9573 O.2     1  UNL1       -0.2698
     31 N         142.1053  141.5533  165.3482 N.am    1  UNL1       -0.2658
     32 H         142.8244  141.4869  164.6792 H       1  UNL1        0.1566
     33 C         142.3750  141.1883  166.7780 C.ar    1  UNL1        0.1343
     34 C         142.7187  142.2570  167.7729 C.ar    1  UNL1        0.0383
     35 C         142.9884  141.8920  169.2026 C.ar    1  UNL1        0.0757
     36 C         142.9144  140.4583  169.6374 C.ar    1  UNL1        0.0246
     37 C         142.5707  139.3896  168.6425 C.ar    1  UNL1        0.1003
     38 N         142.3010  139.7547  167.2128 N.ar    1  UNL1       -0.2290
     39 C         143.3321  142.9607  170.1974 C.3     1  UNL1        0.4187
     40 F         143.6757  144.0295  171.1923 F       1  UNL1       -0.1659
     41 F         144.7755  142.5579  170.1315 F       1  UNL1       -0.1659
     42 F         141.8886  143.3635  170.2633 F       1  UNL1       -0.1659
@<TRIPOS>BOND
     1    13    14    1
     2    14    15    2
     3    14    16   am
     4    16    17    1
     5    17    18    1
     6    18    19    1
     7    19    20    1
     8    20     1    1
     9     1     2   ar
    10     2     3   ar
    11     3    22    1
    12    22    23   ar
    13    23    24   ar
    14    24    25   ar
    15    25    29    1
    16    29    30    2
    17    29    31   am
    18    31    33    1
    19    33    34   ar
    20    34    35   ar
    21    35    39    1
    22    39    40    1
    23    39    41    1
    24    39    42    1
    25    35    36   ar
    26    36    37   ar
    27    37    38   ar
    28    25    26   ar
    29    26    27   ar
    30    27    28    1
    31     3     4   ar
    32     4     5   ar
    33     5     6    1
    34     5     7   ar
    35     7     8   ar
    36     8     9   ar
    37     9    10   ar
    38    20    21    1
    39    21    16    1
    40    10     1   ar
    41    27    22   ar
    42    10     4   ar
    43    38    33   ar
    44    31    32    1
    45     6    11    1
    46     6    12    1
@<TRIPOS>MOLECULE
*****
 42 46 0 0 0
SMALL
GASTEIGER

@<TRIPOS>ATOM
      1 C         141.9272  142.3331  165.3303 C.ar    1  UNL1        0.1255
      2 N         142.8888  141.8659  164.2782 N.ar    1  UNL1       -0.2304
      3 C         142.4245  142.4003  162.9557 C.ar    1  UNL1        0.1035
      4 C         141.1760  143.1978  163.1905 C.ar    1  UNL1        0.1142
      5 C         140.2792  143.9564  162.2576 C.ar    1  UNL1        0.1432
      6 N         140.5866  143.9979  160.7900 N.pl3   1  UNL1       -0.3414
      7 N         139.0751  144.6735  162.7922 N.ar    1  UNL1       -0.2265
      8 C         138.7677  144.6319  164.2598 C.ar    1  UNL1        0.1193
      9 C         139.6645  143.8733  165.1927 C.ar    1  UNL1        0.1020
     10 N         140.8686  143.1562  164.6581 N.ar    1  UNL1       -0.2884
     11 H         141.3769  143.5273  160.4390 H       1  UNL1        0.1438
     12 H         139.9980  144.4959  160.1777 H       1  UNL1        0.1438
     13 C         139.9868  139.8651  171.0656 C.3     1  UNL1        0.0948
     14 C         139.9044  140.1680  169.5987 C.2     1  UNL1        0.2261
     15 O         138.7282  139.6910  168.7994 O.2     1  UNL1       -0.2749
     16 N         140.9983  140.9478  168.9313 N.am    1  UNL1       -0.2791
     17 C         142.1744  141.4248  169.7306 C.3     1  UNL1        0.0934
     18 C         143.2682  142.2045  169.0632 C.3     1  UNL1        0.0220
     19 C         143.1859  142.5073  167.5964 C.3     1  UNL1        0.0110
     20 C         142.0096  142.0303  166.7971 C.3     1  UNL1        0.0771
     21 C         140.9158  141.2505  167.4645 C.3     1  UNL1        0.1008
     22 C         143.0917  142.1765  161.6310 C.ar    1  UNL1        0.0467
     23 C         144.2291  143.0573  161.2057 C.ar    1  UNL1        0.0039
     24 C         144.8962  142.8335  159.8811 C.ar    1  UNL1        0.0047
     25 C         144.4262  141.7290  158.9816 C.ar    1  UNL1        0.0559
     26 C         143.2889  140.8482  159.4069 C.ar    1  UNL1        0.0342
     27 C         142.6217  141.0720  160.7316 C.ar    1  UNL1        0.1417
     28 F         141.4844  140.1911  161.1568 F       1  UNL1       -0.2041
     29 C         145.0934  141.5052  157.6570 C.2     1  UNL1        0.2506
     30 O         144.8831  140.2160  156.9196 O.2     1  UNL1       -0.2698
     31 N         145.9708  142.5706  157.0697 N.am    1  UNL1       -0.2658
     32 H         146.1087  143.4168  157.5537 H       1  UNL1        0.1566
     33 C         146.6380  142.3469  155.7450 C.ar    1  UNL1        0.1343
     34 C         148.1092  142.0606  155.6850 C.ar    1  UNL1        0.0383
     35 C         148.7763  141.8369  154.3603 C.ar    1  UNL1        0.0757
     36 C         147.9723  141.8995  153.0955 C.ar    1  UNL1        0.0246
     37 C         146.5011  142.1858  153.1555 C.ar    1  UNL1        0.1003
     38 N         145.8340  142.4095  154.4803 N.ar    1  UNL1       -0.2290
     39 C         150.2475  141.5507  154.3004 C.3     1  UNL1        0.4187
     40 F         151.7188  141.2643  154.2404 F       1  UNL1       -0.1659
     41 F         150.3804  141.9310  155.7453 F       1  UNL1       -0.1659
     42 F         150.1147  141.1703  152.8555 F       1  UNL1       -0.1659
@<TRIPOS>BOND
     1    13    14    1
     2    14    15    2
     3    14    16   am
     4    16    17    1
     5    17    18    1
     6    18    19    1
     7    19    20    1
     8    20     1    1
     9     1     2   ar
    10     2     3   ar
    11     3    22    1
    12    22    23   ar
    13    23    24   ar
    14    24    25   ar
    15    25    29    1
    16    29    30    2
    17    29    31   am
    18    31    33    1
    19    33    34   ar
    20    34    35   ar
    21    35    39    1
    22    39    40    1
    23    39    41    1
    24    39    42    1
    25    35    36   ar
    26    36    37   ar
    27    37    38   ar
    28    25    26   ar
    29    26    27   ar
    30    27    28    1
    31     3     4   ar
    32     4     5   ar
    33     5     6    1
    34     5     7   ar
    35     7     8   ar
    36     8     9   ar
    37     9    10   ar
    38    20    21    1
    39    21    16    1
    40    10     1   ar
    41    27    22   ar
    42    10     4   ar
    43    38    33   ar
    44    31    32    1
    45     6    11    1
    46     6    12    1
@<TRIPOS>MOLECULE
*****
 42 46 0 0 0
SMALL
GASTEIGER

@<TRIPOS>ATOM
      1 C         140.7903  141.6503  164.6916 C.ar    1  UNL1        0.1255
      2 N         141.0736  140.5948  163.6641 N.ar    1  UNL1       -0.2304
      3 C         140.3758  140.9846  162.3948 C.ar    1  UNL1        0.1035
      4 C         139.6613  142.2809  162.6377 C.ar    1  UNL1        0.1142
      5 C         138.8105  143.1398  161.7498 C.ar    1  UNL1        0.1432
      6 N         138.5544  142.7284  160.3302 N.pl3   1  UNL1       -0.3414
      7 N         138.2159  144.4101  162.2814 N.ar    1  UNL1       -0.2265
      8 C         138.4721  144.8215  163.7009 C.ar    1  UNL1        0.1193
      9 C         139.3228  143.9626  164.5889 C.ar    1  UNL1        0.1020
     10 N         139.9175  142.6923  164.0573 N.ar    1  UNL1       -0.2884
     11 H         138.9447  141.8946  159.9813 H       1  UNL1        0.1438
     12 H         137.9960  143.2921  159.7475 H       1  UNL1        0.1438
     13 C         140.6363  140.4781  171.1222 C.3     1  UNL1        0.0948
     14 C         140.1348  140.4667  169.7085 C.2     1  UNL1        0.2261
     15 O         138.8043  139.8520  169.3896 O.2     1  UNL1       -0.2749
     16 N         140.9641  141.0699  168.6137 N.am    1  UNL1       -0.2791
     17 C         142.2946  141.6846  168.9325 C.3     1  UNL1        0.0934
     18 C         143.1238  142.2878  167.8378 C.3     1  UNL1        0.0220
     19 C         142.6224  142.2764  166.4241 C.3     1  UNL1        0.0110
     20 C         141.2918  141.6617  166.1053 C.3     1  UNL1        0.0771
     21 C         140.4626  141.0585  167.2001 C.3     1  UNL1        0.1008
     22 C         140.3901  140.2133  161.1083 C.ar    1  UNL1        0.0467
     23 C         141.4848  140.4425  160.1086 C.ar    1  UNL1        0.0039
     24 C         141.4991  139.6713  158.8221 C.ar    1  UNL1        0.0047
     25 C         140.4188  138.6709  158.5353 C.ar    1  UNL1        0.0559
     26 C         139.3242  138.4418  159.5350 C.ar    1  UNL1        0.0342
     27 C         139.3100  139.2130  160.8215 C.ar    1  UNL1        0.1417
     28 F         138.2153  138.9838  161.8211 F       1  UNL1       -0.2041
     29 C         140.4331  137.8997  157.2488 C.2     1  UNL1        0.2506
     30 O         139.1681  137.7331  156.4601 O.2     1  UNL1       -0.2698
     31 N         141.7124  137.2952  156.7511 N.am    1  UNL1       -0.2658
     32 H         142.5427  137.4045  157.2687 H       1  UNL1        0.1566
     33 C         141.7268  136.5239  155.4646 C.ar    1  UNL1        0.1343
     34 C         141.6559  135.0258  155.4873 C.ar    1  UNL1        0.0383
     35 C         141.6703  134.2546  154.2008 C.ar    1  UNL1        0.0757
     36 C         141.7556  134.9816  152.8915 C.ar    1  UNL1        0.0246
     37 C         141.8265  136.4797  152.8688 C.ar    1  UNL1        0.1003
     38 N         141.8121  137.2509  154.1553 N.ar    1  UNL1       -0.2290
     39 C         141.5994  132.7565  154.2236 C.3     1  UNL1        0.4187
     40 F         141.5284  131.2583  154.2466 F       1  UNL1       -0.1659
     41 F         142.3663  132.7005  152.9358 F       1  UNL1       -0.1659
     42 F         140.8324  132.8124  155.5116 F       1  UNL1       -0.1659
@<TRIPOS>BOND
     1    13    14    1
     2    14    15    2
     3    14    16   am
     4    16    17    1
     5    17    18    1
     6    18    19    1
     7    19    20    1
     8    20     1    1
     9     1     2   ar
    10     2     3   ar
    11     3    22    1
    12    22    23   ar
    13    23    24   ar
    14    24    25   ar
    15    25    29    1
    16    29    30    2
    17    29    31   am
    18    31    33    1
    19    33    34   ar
    20    34    35   ar
    21    35    39    1
    22    39    40    1
    23    39    41    1
    24    39    42    1
    25    35    36   ar
    26    36    37   ar
    27    37    38   ar
    28    25    26   ar
    29    26    27   ar
    30    27    28    1
    31     3     4   ar
    32     4     5   ar
    33     5     6    1
    34     5     7   ar
    35     7     8   ar
    36     8     9   ar
    37     9    10   ar
    38    20    21    1
    39    21    16    1
    40    10     1   ar
    41    27    22   ar
    42    10     4   ar
    43    38    33   ar
    44    31    32    1
    45     6    11    1
    46     6    12    1
@<TRIPOS>MOLECULE
*****
 42 46 0 0 0
SMALL
GASTEIGER

@<TRIPOS>ATOM
      1 C         138.7193  143.2270  157.3596 C.ar    1  UNL1        0.1255
      2 N         138.4523  142.6482  158.7175 N.ar    1  UNL1       -0.2304
      3 C         139.4465  143.2352  159.6751 C.ar    1  UNL1        0.1035
      4 C         140.3279  144.1767  158.9092 C.ar    1  UNL1        0.1142
      5 C         141.4816  145.0381  159.3299 C.ar    1  UNL1        0.1432
      6 N         141.9311  145.0432  160.7610 N.pl3   1  UNL1       -0.3414
      7 N         142.1859  145.8943  158.3195 N.ar    1  UNL1       -0.2265
      8 C         141.7365  145.8892  156.8885 C.ar    1  UNL1        0.1193
      9 C         140.5827  145.0278  156.4678 C.ar    1  UNL1        0.1020
     10 N         139.8784  144.1716  157.4781 N.ar    1  UNL1       -0.2884
     11 H         141.4688  144.4812  161.4241 H       1  UNL1        0.1438
     12 H         142.6883  145.6085  161.0371 H       1  UNL1        0.1438
     13 C         136.0158  139.4410  152.7653 C.3     1  UNL1        0.0948
     14 C         136.7748  139.7523  154.0212 C.2     1  UNL1        0.2261
     15 O         137.3203  138.6376  154.8636 O.2     1  UNL1       -0.2749
     16 N         136.9881  141.1784  154.4345 N.am    1  UNL1       -0.2791
     17 C         136.4426  142.2931  153.5921 C.3     1  UNL1        0.0934
     18 C         136.6560  143.7191  154.0055 C.3     1  UNL1        0.0220
     19 C         137.4149  144.0305  155.2613 C.3     1  UNL1        0.0110
     20 C         137.9604  142.9157  156.1038 C.3     1  UNL1        0.0771
     21 C         137.7470  141.4897  155.6904 C.3     1  UNL1        0.1008
     22 C         139.5424  142.9336  161.1414 C.ar    1  UNL1        0.0467
     23 C         138.5471  143.5248  162.0954 C.ar    1  UNL1        0.0039
     24 C         138.6430  143.2232  163.5616 C.ar    1  UNL1        0.0047
     25 C         139.7342  142.3305  164.0739 C.ar    1  UNL1        0.0559
     26 C         140.7294  141.7393  163.1199 C.ar    1  UNL1        0.0342
     27 C         140.6335  142.0409  161.6537 C.ar    1  UNL1        0.1417
     28 F         141.6288  141.4497  160.6998 F       1  UNL1       -0.2041
     29 C         139.8301  142.0289  165.5401 C.2     1  UNL1        0.2506
     30 O         139.0565  140.8831  166.1223 O.2     1  UNL1       -0.2698
     31 N         140.6995  142.8730  166.4241 N.am    1  UNL1       -0.2658
     32 H         141.2072  143.6250  166.0419 H       1  UNL1        0.1566
     33 C         140.7955  142.5715  167.8904 C.ar    1  UNL1        0.1343
     34 C         141.5877  141.3886  168.3626 C.ar    1  UNL1        0.0383
     35 C         141.6836  141.0871  169.8289 C.ar    1  UNL1        0.0757
     36 C         140.9873  141.9686  170.8229 C.ar    1  UNL1        0.0246
     37 C         140.1951  143.1515  170.3507 C.ar    1  UNL1        0.1003
     38 N         140.0992  143.4530  168.8844 N.ar    1  UNL1       -0.2290
     39 C         142.4759  139.9042  170.3010 C.3     1  UNL1        0.4187
     40 F         143.2681  138.7211  170.7732 F       1  UNL1       -0.1659
     41 F         143.7141  140.7498  170.3421 F       1  UNL1       -0.1659
     42 F         141.2376  139.0584  170.2599 F       1  UNL1       -0.1659
@<TRIPOS>BOND
     1    13    14    1
     2    14    15    2
     3    14    16   am
     4    16    17    1
     5    17    18    1
     6    18    19    1
     7    19    20    1
     8    20     1    1
     9     1     2   ar
    10     2     3   ar
    11     3    22    1
    12    22    23   ar
    13    23    24   ar
    14    24    25   ar
    15    25    29    1
    16    29    30    2
    17    29    31   am
    18    31    33    1
    19    33    34   ar
    20    34    35   ar
    21    35    39    1
    22    39    40    1
    23    39    41    1
    24    39    42    1
    25    35    36   ar
    26    36    37   ar
    27    37    38   ar
    28    25    26   ar
    29    26    27   ar
    30    27    28    1
    31     3     4   ar
    32     4     5   ar
    33     5     6    1
    34     5     7   ar
    35     7     8   ar
    36     8     9   ar
    37     9    10   ar
    38    20    21    1
    39    21    16    1
    40    10     1   ar
    41    27    22   ar
    42    10     4   ar
    43    38    33   ar
    44    31    32    1
    45     6    11    1
    46     6    12    1
@<TRIPOS>MOLECULE
*****
 42 46 0 0 0
SMALL
GASTEIGER

@<TRIPOS>ATOM
      1 C         138.6306  142.3128  157.4901 C.ar    1  UNL1        0.1255
      2 N         138.6926  141.7580  158.8824 N.ar    1  UNL1       -0.2304
      3 C         139.5595  142.6650  159.7046 C.ar    1  UNL1        0.1035
      4 C         140.0332  143.7804  158.8205 C.ar    1  UNL1        0.1142
      5 C         140.9131  144.9661  159.0849 C.ar    1  UNL1        0.1432
      6 N         141.4872  145.1837  160.4534 N.pl3   1  UNL1       -0.3414
      7 N         141.2190  145.9341  157.9806 N.ar    1  UNL1       -0.2265
      8 C         140.6449  145.7164  156.6120 C.ar    1  UNL1        0.1193
      9 C         139.7650  144.5307  156.3477 C.ar    1  UNL1        0.1020
     10 N         139.4591  143.5627  157.4519 N.ar    1  UNL1       -0.2884
     11 H         141.2865  144.5484  161.1782 H       1  UNL1        0.1438
     12 H         142.0647  145.9619  160.6269 H       1  UNL1        0.1438
     13 C         136.7171  137.6451  153.3308 C.3     1  UNL1        0.0948
     14 C         137.4747  138.2364  154.4826 C.2     1  UNL1        0.2261
     15 O         138.4116  137.3806  155.2823 O.2     1  UNL1       -0.2749
     16 N         137.2951  139.6834  154.8346 N.am    1  UNL1       -0.2791
     17 C         136.3581  140.5392  154.0348 C.3     1  UNL1        0.0934
     18 C         136.1786  141.9862  154.3868 C.3     1  UNL1        0.0220
     19 C         136.9361  142.5774  155.5386 C.3     1  UNL1        0.0110
     20 C         137.8731  141.7216  156.3383 C.3     1  UNL1        0.0771
     21 C         138.0526  140.2746  155.9863 C.3     1  UNL1        0.1008
     22 C         139.8939  142.4877  161.1560 C.ar    1  UNL1        0.0467
     23 C         141.1827  141.8313  161.5540 C.ar    1  UNL1        0.0039
     24 C         141.5171  141.6540  163.0055 C.ar    1  UNL1        0.0047
     25 C         140.5628  142.1331  164.0590 C.ar    1  UNL1        0.0559
     26 C         139.2741  142.7895  163.6610 C.ar    1  UNL1        0.0342
     27 C         138.9397  142.9668  162.2095 C.ar    1  UNL1        0.1417
     28 F         137.6509  143.6233  161.8116 F       1  UNL1       -0.2041
     29 C         140.8972  141.9558  165.5104 C.2     1  UNL1        0.2506
     30 O         140.0471  142.6069  166.5609 O.2     1  UNL1       -0.2698
     31 N         142.0817  141.1275  165.9114 N.am    1  UNL1       -0.2658
     32 H         142.6396  140.7002  165.2219 H       1  UNL1        0.1566
     33 C         142.4162  140.9501  167.3628 C.ar    1  UNL1        0.1343
     34 C         142.8873  142.1216  168.1726 C.ar    1  UNL1        0.0383
     35 C         143.2218  141.9442  169.6240 C.ar    1  UNL1        0.0757
     36 C         143.0851  140.5953  170.2657 C.ar    1  UNL1        0.0246
     37 C         142.6139  139.4238  169.4560 C.ar    1  UNL1        0.1003
     38 N         142.2795  139.6013  168.0045 N.ar    1  UNL1       -0.2290
     39 C         143.6929  143.1157  170.4336 C.3     1  UNL1        0.4187
     40 F         144.1642  144.2872  171.2433 F       1  UNL1       -0.1659
     41 F         142.2797  143.6053  170.5477 F       1  UNL1       -0.1659
     42 F         145.1063  142.6261  170.3196 F       1  UNL1       -0.1659
@<TRIPOS>BOND
     1    13    14    1
     2    14    15    2
     3    14    16   am
     4    16    17    1
     5    17    18    1
     6    18    19    1
     7    19    20    1
     8    20     1    1
     9     1     2   ar
    10     2     3   ar
    11     3    22    1
    12    22    23   ar
    13    23    24   ar
    14    24    25   ar
    15    25    29    1
    16    29    30    2
    17    29    31   am
    18    31    33    1
    19    33    34   ar
    20    34    35   ar
    21    35    39    1
    22    39    40    1
    23    39    41    1
    24    39    42    1
    25    35    36   ar
    26    36    37   ar
    27    37    38   ar
    28    25    26   ar
    29    26    27   ar
    30    27    28    1
    31     3     4   ar
    32     4     5   ar
    33     5     6    1
    34     5     7   ar
    35     7     8   ar
    36     8     9   ar
    37     9    10   ar
    38    20    21    1
    39    21    16    1
    40    10     1   ar
    41    27    22   ar
    42    10     4   ar
    43    38    33   ar
    44    31    32    1
    45     6    11    1
    46     6    12    1
@<TRIPOS>MOLECULE
*****
 42 46 0 0 0
SMALL
GASTEIGER

@<TRIPOS>ATOM
      1 C         142.0621  141.0049  164.9502 C.ar    1  UNL1        0.1255
      2 N         140.8805  141.0239  164.0264 N.ar    1  UNL1       -0.2304
      3 C         141.3794  141.3134  162.6417 C.ar    1  UNL1        0.1035
      4 C         142.8693  141.4732  162.7097 C.ar    1  UNL1        0.1142
      5 C         143.8963  141.7677  161.6569 C.ar    1  UNL1        0.1432
      6 N         143.4744  141.9584  160.2301 N.pl3   1  UNL1       -0.3414
      7 N         145.3453  141.8716  162.0307 N.ar    1  UNL1       -0.2265
      8 C         145.7672  141.6809  163.4575 C.ar    1  UNL1        0.1193
      9 C         144.7402  141.3864  164.5104 C.ar    1  UNL1        0.1020
     10 N         143.2912  141.2826  164.1365 N.ar    1  UNL1       -0.2884
     11 H         142.5234  141.8902  159.9847 H       1  UNL1        0.1438
     12 H         144.1485  142.1517  159.5391 H       1  UNL1        0.1438
     13 C         140.6546  142.2482  171.2130 C.3     1  UNL1        0.0948
     14 C         140.6950  142.5006  169.7349 C.2     1  UNL1        0.2261
     15 O         140.0924  143.7531  169.1712 O.2     1  UNL1       -0.2749
     16 N         141.3382  141.5003  168.8207 N.am    1  UNL1       -0.2791
     17 C         141.9408  140.2478  169.3844 C.3     1  UNL1        0.0934
     18 C         142.5840  139.2476  168.4700 C.3     1  UNL1        0.0220
     19 C         142.6244  139.4999  166.9920 C.3     1  UNL1        0.0110
     20 C         142.0217  140.7525  166.4283 C.3     1  UNL1        0.0771
     21 C         141.3786  141.7527  167.3426 C.3     1  UNL1        0.1008
     22 C         140.5364  141.4236  161.4059 C.ar    1  UNL1        0.0467
     23 C         140.3364  140.2260  160.5251 C.ar    1  UNL1        0.0039
     24 C         139.4933  140.3362  159.2894 C.ar    1  UNL1        0.0047
     25 C         138.8503  141.6440  158.9344 C.ar    1  UNL1        0.0559
     26 C         139.0502  142.8416  159.8151 C.ar    1  UNL1        0.0342
     27 C         139.8933  142.7314  161.0509 C.ar    1  UNL1        0.1417
     28 F         140.0932  143.9291  161.9317 F       1  UNL1       -0.2041
     29 C         138.0072  141.7543  157.6986 C.2     1  UNL1        0.2506
     30 O         138.0031  143.0269  156.9045 O.2     1  UNL1       -0.2698
     31 N         137.1683  140.5919  157.2570 N.am    1  UNL1       -0.2658
     32 H         137.1710  139.7567  157.7782 H       1  UNL1        0.1566
     33 C         136.3252  140.7021  156.0212 C.ar    1  UNL1        0.1343
     34 C         134.8538  140.9693  156.1383 C.ar    1  UNL1        0.0383
     35 C         134.0108  141.0794  154.9025 C.ar    1  UNL1        0.0757
     36 C         134.6392  140.9224  153.5496 C.ar    1  UNL1        0.0246
     37 C         136.1105  140.6553  153.4324 C.ar    1  UNL1        0.1003
     38 N         136.9535  140.5451  154.6682 N.ar    1  UNL1       -0.2290
     39 C         132.5395  141.3465  155.0198 C.3     1  UNL1        0.4187
     40 F         131.0681  141.6137  155.1370 F       1  UNL1       -0.1659
     41 F         132.5889  140.9812  156.4738 F       1  UNL1       -0.1659
     42 F         132.4899  141.7119  153.5657 F       1  UNL1       -0.1659
@<TRIPOS>BOND
     1    13    14    1
     2    14    15    2
     3    14    16   am
     4    16    17    1
     5    17    18    1
     6    18    19    1
     7    19    20    1
     8    20     1    1
     9     1     2   ar
    10     2     3   ar
    11     3    22    1
    12    22    23   ar
    13    23    24   ar
    14    24    25   ar
    15    25    29    1
    16    29    30    2
    17    29    31   am
    18    31    33    1
    19    33    34   ar
    20    34    35   ar
    21    35    39    1
    22    39    40    1
    23    39    41    1
    24    39    42    1
    25    35    36   ar
    26    36    37   ar
    27    37    38   ar
    28    25    26   ar
    29    26    27   ar
    30    27    28    1
    31     3     4   ar
    32     4     5   ar
    33     5     6    1
    34     5     7   ar
    35     7     8   ar
    36     8     9   ar
    37     9    10   ar
    38    20    21    1
    39    21    16    1
    40    10     1   ar
    41    27    22   ar
    42    10     4   ar
    43    38    33   ar
    44    31    32    1
    45     6    11    1
    46     6    12    1
