@<TRIPOS>MOLECULE
*****
 39 44 0 0 0
SMALL
GASTEIGER

@<TRIPOS>ATOM
      1 N         138.1187  140.6240  161.9663 N.3     1  UNL1       -0.2690
      2 C         138.4293  141.3541  160.6934 C.3     1  UNL1        0.0725
      3 C         138.9855  140.6078  159.5172 C.3     1  UNL1        0.0211
      4 C         139.2310  139.1311  159.6138 C.3     1  UNL1        0.0466
      5 C         138.9203  138.4010  160.8867 C.3     1  UNL1        0.0211
      6 C         138.3642  139.1474  162.0629 C.3     1  UNL1        0.0725
      7 C         137.5625  141.3704  163.1426 C.3     1  UNL1        0.0991
      8 C         140.1644  142.1908  166.7213 C.ar    1  UNL1        0.0000
      9 C         139.5745  140.8264  166.5198 C.ar    1  UNL1       -0.0003
     10 C         138.7073  140.5530  165.3269 C.ar    1  UNL1       -0.0029
     11 C         138.4298  141.6439  164.3355 C.ar    1  UNL1       -0.0061
     12 C         139.0197  143.0083  164.5370 C.ar    1  UNL1       -0.0029
     13 C         139.8870  143.2817  165.7299 C.ar    1  UNL1       -0.0003
     14 C         142.5012  142.1689  167.8566 C.ar    1  UNL1        0.0140
     15 C         143.3686  142.4424  169.0494 C.ar    1  UNL1        0.0011
     16 C         142.7664  143.0113  170.2999 C.ar    1  UNL1        0.0000
     17 C         141.2969  143.3067  170.3575 C.ar    1  UNL1        0.0000
     18 C         140.4295  143.0332  169.1647 C.ar    1  UNL1        0.0000
     19 C         141.0317  142.4643  167.9142 C.ar    1  UNL1        0.0011
     20 O         142.9322  140.1445  166.2861 O.co2   1  UNL1       -0.5446
     21 C         143.1034  141.6000  166.6061 C.2     1  UNL1        0.0729
     22 O         143.8768  142.4866  165.6756 O.co2   1  UNL1       -0.5446
     23 C         139.7871  138.3848  158.4375 C.3     1  UNL1        0.2087
     24 O         141.2708  138.2287  158.2816 O.3     1  UNL1       -0.4453
     25 C         142.1815  138.5243  159.4362 C.2     1  UNL1        0.3458
     26 O         142.4174  137.4839  160.4908 O.2     1  UNL1       -0.2447
     27 C         142.8564  139.8601  159.5362 C.ar    1  UNL1        0.1283
     28 C         143.8268  140.4340  158.5468 C.ar    1  UNL1        0.2121
     29 N         144.2495  141.7852  159.0424 N.ar    1  UNL1       -0.2989
     30 C         143.5403  142.0464  160.3381 C.ar    1  UNL1        0.0626
     31 C         143.5672  143.2139  161.2794 C.ar    1  UNL1        0.0173
     32 C         142.7332  143.1917  162.5259 C.ar    1  UNL1        0.0015
     33 C         141.8722  142.0019  162.8311 C.ar    1  UNL1        0.0001
     34 C         141.8452  140.8344  161.8898 C.ar    1  UNL1        0.0018
     35 C         142.6793  140.8567  160.6433 C.ar    1  UNL1        0.0266
     36 C         145.2256  142.6031  158.2498 C.3     1  UNL1        0.1127
     37 C         145.7790  142.0699  156.9617 C.3     1  UNL1        0.0719
     38 C         145.3563  140.7187  156.4661 C.3     1  UNL1        0.2091
     39 O         144.3803  139.9007  157.2586 O.3     1  UNL1       -0.4611
@<TRIPOS>UNITY_ATOM_ATTR
20 1
charge -1
@<TRIPOS>BOND
     1    20    21   ar
     2    21    22   ar
     3    21    14    1
     4    14    15   ar
     5    15    16   ar
     6    16    17   ar
     7    17    18   ar
     8    18    19   ar
     9    19     8    1
    10     8     9   ar
    11     9    10   ar
    12    10    11   ar
    13    11     7    1
    14     7     1    1
    15     1     2    1
    16     2     3    1
    17     3     4    1
    18     4    23    1
    19    23    24    1
    20    24    25    1
    21    25    26    2
    22    25    27    1
    23    27    28   ar
    24    28    29   ar
    25    29    30   ar
    26    30    31   ar
    27    31    32   ar
    28    32    33   ar
    29    33    34   ar
    30    34    35   ar
    31    29    36    1
    32    36    37    1
    33    37    38    1
    34    38    39    1
    35     4     5    1
    36     5     6    1
    37    11    12   ar
    38    12    13   ar
    39    19    14   ar
    40    13     8   ar
    41     6     1    1
    42    35    27   ar
    43    39    28    1
    44    35    30   ar
@<TRIPOS>MOLECULE
*****
 39 44 0 0 0
SMALL
GASTEIGER

@<TRIPOS>ATOM
      1 N         144.7798  140.7223  162.4870 N.3     1  UNL1       -0.2690
      2 C         145.1467  142.1397  162.1610 C.3     1  UNL1        0.0725
      3 C         144.8070  142.7121  160.8167 C.3     1  UNL1        0.0211
      4 C         144.1005  141.8671  159.7985 C.3     1  UNL1        0.0466
      5 C         143.7337  140.4497  160.1246 C.3     1  UNL1        0.0211
      6 C         144.0733  139.8773  161.4688 C.3     1  UNL1        0.0725
      7 C         145.1195  140.1499  163.8312 C.3     1  UNL1        0.0991
      8 C         142.0429  140.1403  167.1153 C.ar    1  UNL1        0.0000
      9 C         142.7680  138.8752  166.7630 C.ar    1  UNL1       -0.0003
     10 C         143.7935  138.8785  165.6684 C.ar    1  UNL1       -0.0029
     11 C         144.0940  140.1467  164.9259 C.ar    1  UNL1       -0.0061
     12 C         143.3690  141.4118  165.2782 C.ar    1  UNL1       -0.0029
     13 C         142.3435  141.4085  166.3728 C.ar    1  UNL1       -0.0003
     14 C         141.4403  140.3428  169.6343 C.ar    1  UNL1        0.0140
     15 C         140.4149  140.3396  170.7291 C.ar    1  UNL1        0.0011
     16 C         138.9665  140.1308  170.3993 C.ar    1  UNL1        0.0000
     17 C         138.5437  139.9251  168.9749 C.ar    1  UNL1        0.0000
     18 C         139.5691  139.9283  167.8802 C.ar    1  UNL1        0.0000
     19 C         141.0174  140.1371  168.2100 C.ar    1  UNL1        0.0011
     20 O         143.5706  141.8287  169.5715 O.co2   1  UNL1       -0.5446
     21 C         142.8886  140.5516  169.9641 C.2     1  UNL1        0.0729
     22 O         143.6550  139.4834  170.6863 O.co2   1  UNL1       -0.5446
     23 C         143.7608  142.4396  158.4543 C.3     1  UNL1        0.2087
     24 O         142.3737  142.9409  158.1813 O.3     1  UNL1       -0.4453
     25 C         141.6973  143.8491  159.1650 C.2     1  UNL1        0.3458
     26 O         141.8496  145.3362  159.0403 O.2     1  UNL1       -0.2447
     27 C         140.8686  143.2704  160.2733 C.ar    1  UNL1        0.1283
     28 C         139.8366  142.1911  160.1314 C.ar    1  UNL1        0.2121
     29 N         139.2566  141.9231  161.4885 N.ar    1  UNL1       -0.2989
     30 C         139.9302  142.8367  162.4691 C.ar    1  UNL1        0.0626
     31 C         139.7651  143.0179  163.9489 C.ar    1  UNL1        0.0173
     32 C         140.5962  144.0319  164.6777 C.ar    1  UNL1        0.0015
     33 C         141.5925  144.8645  163.9266 C.ar    1  UNL1        0.0001
     34 C         141.7576  144.6833  162.4468 C.ar    1  UNL1        0.0018
     35 C         140.9265  143.6694  161.7181 C.ar    1  UNL1        0.0266
     36 C         138.1901  140.8818  161.6560 C.3     1  UNL1        0.1127
     37 C         137.7035  140.1084  160.4663 C.3     1  UNL1        0.0719
     38 C         138.2835  140.3765  159.1092 C.3     1  UNL1        0.2091
     39 O         139.3500  141.4178  158.9417 O.3     1  UNL1       -0.4611
@<TRIPOS>UNITY_ATOM_ATTR
20 1
charge -1
@<TRIPOS>BOND
     1    20    21   ar
     2    21    22   ar
     3    21    14    1
     4    14    15   ar
     5    15    16   ar
     6    16    17   ar
     7    17    18   ar
     8    18    19   ar
     9    19     8    1
    10     8     9   ar
    11     9    10   ar
    12    10    11   ar
    13    11     7    1
    14     7     1    1
    15     1     2    1
    16     2     3    1
    17     3     4    1
    18     4    23    1
    19    23    24    1
    20    24    25    1
    21    25    26    2
    22    25    27    1
    23    27    28   ar
    24    28    29   ar
    25    29    30   ar
    26    30    31   ar
    27    31    32   ar
    28    32    33   ar
    29    33    34   ar
    30    34    35   ar
    31    29    36    1
    32    36    37    1
    33    37    38    1
    34    38    39    1
    35     4     5    1
    36     5     6    1
    37    11    12   ar
    38    12    13   ar
    39    19    14   ar
    40    13     8   ar
    41     6     1    1
    42    35    27   ar
    43    39    28    1
    44    35    30   ar
@<TRIPOS>MOLECULE
*****
 39 44 0 0 0
SMALL
GASTEIGER

@<TRIPOS>ATOM
      1 N         138.0602  141.1232  161.8648 N.3     1  UNL1       -0.2690
      2 C         137.8102  139.7139  161.4161 C.3     1  UNL1        0.0725
      3 C         138.4072  139.2183  160.1324 C.3     1  UNL1        0.0211
      4 C         139.2543  140.1320  159.2973 C.3     1  UNL1        0.0466
      5 C         139.5044  141.5413  159.7459 C.3     1  UNL1        0.0211
      6 C         138.9074  142.0369  161.0296 C.3     1  UNL1        0.0725
      7 C         137.4632  141.6188  163.1485 C.3     1  UNL1        0.0991
      8 C         140.0979  142.3389  166.7248 C.ar    1  UNL1        0.0000
      9 C         139.5524  140.9671  166.4591 C.ar    1  UNL1       -0.0003
     10 C         138.6742  140.7271  165.2670 C.ar    1  UNL1       -0.0029
     11 C         138.3414  141.8589  164.3406 C.ar    1  UNL1       -0.0061
     12 C         138.8869  143.2307  164.6062 C.ar    1  UNL1       -0.0029
     13 C         139.7651  143.4707  165.7983 C.ar    1  UNL1       -0.0003
     14 C         142.3878  142.0721  167.9226 C.ar    1  UNL1        0.0140
     15 C         143.2661  142.3122  169.1146 C.ar    1  UNL1        0.0011
     16 C         142.7326  143.0592  170.3010 C.ar    1  UNL1        0.0000
     17 C         141.3209  143.5661  170.2952 C.ar    1  UNL1        0.0000
     18 C         140.4426  143.3261  169.1032 C.ar    1  UNL1        0.0000
     19 C         140.9761  142.5790  167.9169 C.ar    1  UNL1        0.0011
     20 O         143.0385  139.8303  166.7819 O.co2   1  UNL1       -0.5446
     21 C         142.9213  141.3251  166.7363 C.2     1  UNL1        0.0729
     22 O         143.3377  142.0728  165.5044 O.co2   1  UNL1       -0.5446
     23 C         139.8514  139.6364  158.0135 C.3     1  UNL1        0.2087
     24 O         140.5981  138.3358  157.9866 O.3     1  UNL1       -0.4453
     25 C         141.9666  138.2439  158.5938 C.2     1  UNL1        0.3458
     26 O         143.0305  137.4249  157.9248 O.2     1  UNL1       -0.2447
     27 C         142.2713  138.9710  159.8699 C.ar    1  UNL1        0.1283
     28 C         141.8547  138.5473  161.2472 C.ar    1  UNL1        0.2121
     29 N         142.3721  139.5639  162.2212 N.ar    1  UNL1       -0.2989
     30 C         143.1085  140.6159  161.4460 C.ar    1  UNL1        0.0626
     31 C         143.8277  141.8601  161.8756 C.ar    1  UNL1        0.0173
     32 C         144.4846  142.7379  160.8520 C.ar    1  UNL1        0.0015
     33 C         144.4224  142.3715  159.3987 C.ar    1  UNL1        0.0001
     34 C         143.7032  141.1273  158.9691 C.ar    1  UNL1        0.0018
     35 C         143.0462  140.2495  159.9928 C.ar    1  UNL1        0.0266
     36 C         142.1058  139.4003  163.6883 C.3     1  UNL1        0.1127
     37 C         141.3221  138.2201  164.1813 C.3     1  UNL1        0.0719
     38 C         140.8047  137.2035  163.2072 C.3     1  UNL1        0.2091
     39 O         141.0710  137.3671  161.7402 O.3     1  UNL1       -0.4611
@<TRIPOS>UNITY_ATOM_ATTR
20 1
charge -1
@<TRIPOS>BOND
     1    20    21   ar
     2    21    22   ar
     3    21    14    1
     4    14    15   ar
     5    15    16   ar
     6    16    17   ar
     7    17    18   ar
     8    18    19   ar
     9    19     8    1
    10     8     9   ar
    11     9    10   ar
    12    10    11   ar
    13    11     7    1
    14     7     1    1
    15     1     2    1
    16     2     3    1
    17     3     4    1
    18     4    23    1
    19    23    24    1
    20    24    25    1
    21    25    26    2
    22    25    27    1
    23    27    28   ar
    24    28    29   ar
    25    29    30   ar
    26    30    31   ar
    27    31    32   ar
    28    32    33   ar
    29    33    34   ar
    30    34    35   ar
    31    29    36    1
    32    36    37    1
    33    37    38    1
    34    38    39    1
    35     4     5    1
    36     5     6    1
    37    11    12   ar
    38    12    13   ar
    39    19    14   ar
    40    13     8   ar
    41     6     1    1
    42    35    27   ar
    43    39    28    1
    44    35    30   ar
@<TRIPOS>MOLECULE
*****
 39 44 0 0 0
SMALL
GASTEIGER

@<TRIPOS>ATOM
      1 N         141.6372  137.8702  161.9473 N.3     1  UNL1       -0.2690
      2 C         140.6664  138.3548  160.9116 C.3     1  UNL1        0.0725
      3 C         141.1712  138.9499  159.6306 C.3     1  UNL1        0.0211
      4 C         142.6469  139.0605  159.3852 C.3     1  UNL1        0.0466
      5 C         143.6177  138.5759  160.4209 C.3     1  UNL1        0.0211
      6 C         143.1129  137.9808  161.7019 C.3     1  UNL1        0.0725
      7 C         141.1325  137.2751  163.2283 C.3     1  UNL1        0.0991
      8 C         140.4577  139.9036  166.8181 C.ar    1  UNL1        0.0000
      9 C         141.8105  139.3045  166.5707 C.ar    1  UNL1       -0.0003
     10 C         142.0354  138.4284  165.3742 C.ar    1  UNL1       -0.0029
     11 C         140.9075  138.1513  164.4249 C.ar    1  UNL1       -0.0061
     12 C         139.5547  138.7504  164.6722 C.ar    1  UNL1       -0.0029
     13 C         139.3299  139.6265  165.8688 C.ar    1  UNL1       -0.0003
     14 C         140.8472  142.1471  168.0691 C.ar    1  UNL1        0.0140
     15 C         140.6223  143.0233  169.2656 C.ar    1  UNL1        0.0011
     16 C         139.7830  142.5321  170.4076 C.ar    1  UNL1        0.0000
     17 C         139.1686  141.1648  170.3532 C.ar    1  UNL1        0.0000
     18 C         139.3935  140.2886  169.1567 C.ar    1  UNL1        0.0000
     19 C         140.2328  140.7798  168.0146 C.ar    1  UNL1        0.0011
     20 O         143.1804  142.5158  166.9872 O.co2   1  UNL1       -0.5446
     21 C         141.6865  142.6382  166.9270 C.2     1  UNL1        0.0729
     22 O         141.0321  143.2518  165.7249 O.co2   1  UNL1       -0.5446
     23 C         143.1517  139.6556  158.1042 C.3     1  UNL1        0.2087
     24 O         144.5375  140.2257  158.0369 O.3     1  UNL1       -0.4453
     25 C         144.7579  141.6908  158.2710 C.2     1  UNL1        0.3458
     26 O         145.7411  142.4457  157.4262 O.2     1  UNL1       -0.2447
     27 C         143.9953  142.4010  159.3499 C.ar    1  UNL1        0.1283
     28 C         144.3285  142.3993  160.8124 C.ar    1  UNL1        0.2121
     29 N         143.3048  143.2349  161.5221 N.ar    1  UNL1       -0.2989
     30 C         142.3388  143.7531  160.4981 C.ar    1  UNL1        0.0626
     31 C         141.1258  144.6277  160.6147 C.ar    1  UNL1        0.0173
     32 C         140.3396  144.9869  159.3889 C.ar    1  UNL1        0.0015
     33 C         140.7664  144.4715  158.0464 C.ar    1  UNL1        0.0001
     34 C         141.9794  143.5970  157.9298 C.ar    1  UNL1        0.0018
     35 C         142.7656  143.2378  159.1557 C.ar    1  UNL1        0.0266
     36 C         143.3843  143.4160  163.0089 C.3     1  UNL1        0.1127
     37 C         144.4877  142.7614  163.7862 C.3     1  UNL1        0.0719
     38 C         145.5115  141.9258  163.0766 C.3     1  UNL1        0.2091
     39 O         145.4319  141.7447  161.5897 O.3     1  UNL1       -0.4611
@<TRIPOS>UNITY_ATOM_ATTR
20 1
charge -1
@<TRIPOS>BOND
     1    20    21   ar
     2    21    22   ar
     3    21    14    1
     4    14    15   ar
     5    15    16   ar
     6    16    17   ar
     7    17    18   ar
     8    18    19   ar
     9    19     8    1
    10     8     9   ar
    11     9    10   ar
    12    10    11   ar
    13    11     7    1
    14     7     1    1
    15     1     2    1
    16     2     3    1
    17     3     4    1
    18     4    23    1
    19    23    24    1
    20    24    25    1
    21    25    26    2
    22    25    27    1
    23    27    28   ar
    24    28    29   ar
    25    29    30   ar
    26    30    31   ar
    27    31    32   ar
    28    32    33   ar
    29    33    34   ar
    30    34    35   ar
    31    29    36    1
    32    36    37    1
    33    37    38    1
    34    38    39    1
    35     4     5    1
    36     5     6    1
    37    11    12   ar
    38    12    13   ar
    39    19    14   ar
    40    13     8   ar
    41     6     1    1
    42    35    27   ar
    43    39    28    1
    44    35    30   ar
@<TRIPOS>MOLECULE
*****
 39 44 0 0 0
SMALL
GASTEIGER

@<TRIPOS>ATOM
      1 N         138.7734  138.3859  162.1229 N.3     1  UNL1       -0.2690
      2 C         137.7676  139.4809  161.9246 C.3     1  UNL1        0.0725
      3 C         137.6531  140.1619  160.5930 C.3     1  UNL1        0.0211
      4 C         138.5443  139.7479  159.4597 C.3     1  UNL1        0.0466
      5 C         139.5501  138.6529  159.6581 C.3     1  UNL1        0.0211
      6 C         139.6646  137.9719  160.9897 C.3     1  UNL1        0.0725
      7 C         138.8879  137.7049  163.4545 C.3     1  UNL1        0.0991
      8 C         141.1963  139.6560  166.7884 C.ar    1  UNL1        0.0000
      9 C         139.7046  139.8005  166.7242 C.ar    1  UNL1       -0.0003
     10 C         138.9352  139.1501  165.6129 C.ar    1  UNL1       -0.0029
     11 C         139.6574  138.3552  164.5658 C.ar    1  UNL1       -0.0061
     12 C         141.1491  138.2108  164.6299 C.ar    1  UNL1       -0.0029
     13 C         141.9185  138.8612  165.7412 C.ar    1  UNL1       -0.0003
     14 C         142.5810  141.6589  167.6944 C.ar    1  UNL1        0.0140
     15 C         143.3505  142.3094  168.8056 C.ar    1  UNL1        0.0011
     16 C         143.5046  141.6072  170.1221 C.ar    1  UNL1        0.0000
     17 C         142.8894  140.2547  170.3274 C.ar    1  UNL1        0.0000
     18 C         142.1199  139.6043  169.2162 C.ar    1  UNL1        0.0000
     19 C         141.9657  140.3064  167.8997 C.ar    1  UNL1        0.0011
     20 O         141.1271  143.0239  166.0290 O.co2   1  UNL1       -0.5446
     21 C         142.4268  142.3611  166.3779 C.2     1  UNL1        0.0729
     22 O         143.5722  142.4005  165.4102 O.co2   1  UNL1       -0.5446
     23 C         138.4298  140.4289  158.1282 C.3     1  UNL1        0.2087
     24 O         139.5982  141.1860  157.5699 O.3     1  UNL1       -0.4453
     25 C         139.9523  142.5341  158.1239 C.2     1  UNL1        0.3458
     26 O         139.5075  143.7776  157.4124 O.2     1  UNL1       -0.2447
     27 C         140.7511  142.6390  159.3892 C.ar    1  UNL1        0.1283
     28 C         140.5976  143.6945  160.4438 C.ar    1  UNL1        0.2121
     29 N         141.5952  143.4145  161.5284 N.ar    1  UNL1       -0.2989
     30 C         142.3653  142.1860  161.1440 C.ar    1  UNL1        0.0626
     31 C         143.4742  141.4419  161.8271 C.ar    1  UNL1        0.0173
     32 C         144.0613  140.2184  161.1880 C.ar    1  UNL1        0.0015
     33 C         143.5396  139.7391  159.8659 C.ar    1  UNL1        0.0001
     34 C         142.4307  140.4832  159.1828 C.ar    1  UNL1        0.0018
     35 C         141.8436  141.7067  159.8219 C.ar    1  UNL1        0.0266
     36 C         141.6736  144.3144  162.7258 C.3     1  UNL1        0.1127
     37 C         140.7543  145.4943  162.8388 C.3     1  UNL1        0.0719
     38 C         139.7566  145.7743  161.7542 C.3     1  UNL1        0.2091
     39 O         139.6782  144.8744  160.5567 O.3     1  UNL1       -0.4611
@<TRIPOS>UNITY_ATOM_ATTR
20 1
charge -1
@<TRIPOS>BOND
     1    20    21   ar
     2    21    22   ar
     3    21    14    1
     4    14    15   ar
     5    15    16   ar
     6    16    17   ar
     7    17    18   ar
     8    18    19   ar
     9    19     8    1
    10     8     9   ar
    11     9    10   ar
    12    10    11   ar
    13    11     7    1
    14     7     1    1
    15     1     2    1
    16     2     3    1
    17     3     4    1
    18     4    23    1
    19    23    24    1
    20    24    25    1
    21    25    26    2
    22    25    27    1
    23    27    28   ar
    24    28    29   ar
    25    29    30   ar
    26    30    31   ar
    27    31    32   ar
    28    32    33   ar
    29    33    34   ar
    30    34    35   ar
    31    29    36    1
    32    36    37    1
    33    37    38    1
    34    38    39    1
    35     4     5    1
    36     5     6    1
    37    11    12   ar
    38    12    13   ar
    39    19    14   ar
    40    13     8   ar
    41     6     1    1
    42    35    27   ar
    43    39    28    1
    44    35    30   ar
@<TRIPOS>MOLECULE
*****
 39 44 0 0 0
SMALL
GASTEIGER

@<TRIPOS>ATOM
      1 N         138.8429  138.3528  162.5779 N.3     1  UNL1       -0.2690
      2 C         137.6828  139.0993  161.9889 C.3     1  UNL1        0.0725
      3 C         137.7364  139.5659  160.5644 C.3     1  UNL1        0.0211
      4 C         138.9502  139.2859  159.7286 C.3     1  UNL1        0.0466
      5 C         140.1103  138.5394  160.3176 C.3     1  UNL1        0.0211
      6 C         140.0566  138.0729  161.7421 C.3     1  UNL1        0.0725
      7 C         138.7893  137.8862  164.0024 C.3     1  UNL1        0.0991
      8 C         140.4042  140.5017  167.2890 C.ar    1  UNL1        0.0000
      9 C         139.1766  139.6726  167.5250 C.ar    1  UNL1       -0.0003
     10 C         138.6383  138.8009  166.4294 C.ar    1  UNL1       -0.0029
     11 C         139.3276  138.7580  165.0979 C.ar    1  UNL1       -0.0061
     12 C         140.5553  139.5870  164.8619 C.ar    1  UNL1       -0.0029
     13 C         141.0935  140.4588  165.9575 C.ar    1  UNL1       -0.0003
     14 C         142.0041  140.8503  169.3061 C.ar    1  UNL1        0.0140
     15 C         142.5425  141.7221  170.4016 C.ar    1  UNL1        0.0011
     16 C         142.0193  143.1170  170.5755 C.ar    1  UNL1        0.0000
     17 C         140.9577  143.6402  169.6539 C.ar    1  UNL1        0.0000
     18 C         140.4193  142.7685  168.5584 C.ar    1  UNL1        0.0000
     19 C         140.9426  141.3735  168.3845 C.ar    1  UNL1        0.0011
     20 O         143.2548  139.0783  167.8757 O.co2   1  UNL1       -0.5446
     21 C         142.5274  139.4553  169.1322 C.2     1  UNL1        0.0729
     22 O         142.3231  138.4373  170.2148 O.co2   1  UNL1       -0.5446
     23 C         139.0038  139.7525  158.3041 C.3     1  UNL1        0.2087
     24 O         139.6510  141.0633  157.9680 O.3     1  UNL1       -0.4453
     25 C         139.3532  142.2801  158.7929 C.2     1  UNL1        0.3458
     26 O         138.2920  143.2442  158.3515 O.2     1  UNL1       -0.2447
     27 C         140.1164  142.5331  160.0592 C.ar    1  UNL1        0.1283
     28 C         141.6097  142.5744  160.1953 C.ar    1  UNL1        0.2121
     29 N         141.9365  142.8560  161.6320 N.ar    1  UNL1       -0.2989
     30 C         140.6453  142.9887  162.3837 C.ar    1  UNL1        0.0626
     31 C         140.3485  143.2656  163.8277 C.ar    1  UNL1        0.0173
     32 C         138.9268  143.3429  164.2997 C.ar    1  UNL1        0.0015
     33 C         137.8019  143.1433  163.3277 C.ar    1  UNL1        0.0001
     34 C         138.0987  142.8665  161.8837 C.ar    1  UNL1        0.0018
     35 C         139.5204  142.7892  161.4117 C.ar    1  UNL1        0.0266
     36 C         143.3677  142.9551  162.0700 C.3     1  UNL1        0.1127
     37 C         144.4720  142.7726  161.0714 C.3     1  UNL1        0.0719
     38 C         144.1452  142.4910  159.6348 C.3     1  UNL1        0.2091
     39 O         142.7140  142.3919  159.1968 O.3     1  UNL1       -0.4611
@<TRIPOS>UNITY_ATOM_ATTR
20 1
charge -1
@<TRIPOS>BOND
     1    20    21   ar
     2    21    22   ar
     3    21    14    1
     4    14    15   ar
     5    15    16   ar
     6    16    17   ar
     7    17    18   ar
     8    18    19   ar
     9    19     8    1
    10     8     9   ar
    11     9    10   ar
    12    10    11   ar
    13    11     7    1
    14     7     1    1
    15     1     2    1
    16     2     3    1
    17     3     4    1
    18     4    23    1
    19    23    24    1
    20    24    25    1
    21    25    26    2
    22    25    27    1
    23    27    28   ar
    24    28    29   ar
    25    29    30   ar
    26    30    31   ar
    27    31    32   ar
    28    32    33   ar
    29    33    34   ar
    30    34    35   ar
    31    29    36    1
    32    36    37    1
    33    37    38    1
    34    38    39    1
    35     4     5    1
    36     5     6    1
    37    11    12   ar
    38    12    13   ar
    39    19    14   ar
    40    13     8   ar
    41     6     1    1
    42    35    27   ar
    43    39    28    1
    44    35    30   ar
@<TRIPOS>MOLECULE
*****
 39 44 0 0 0
SMALL
GASTEIGER

@<TRIPOS>ATOM
      1 N         144.7754  140.7235  162.5018 N.3     1  UNL1       -0.2690
      2 C         145.1090  142.1301  162.1018 C.3     1  UNL1        0.0725
      3 C         144.7488  142.6261  160.7328 C.3     1  UNL1        0.0211
      4 C         144.0549  141.7154  159.7636 C.3     1  UNL1        0.0466
      5 C         143.7213  140.3087  160.1636 C.3     1  UNL1        0.0211
      6 C         144.0816  139.8128  161.5326 C.3     1  UNL1        0.0725
      7 C         145.1356  140.2275  163.8708 C.3     1  UNL1        0.0991
      8 C         142.0284  140.1485  167.1249 C.ar    1  UNL1        0.0000
      9 C         142.3661  141.4404  166.4414 C.ar    1  UNL1       -0.0003
     10 C         143.4018  141.4667  165.3567 C.ar    1  UNL1       -0.0029
     11 C         144.0999  140.2011  164.9555 C.ar    1  UNL1       -0.0061
     12 C         143.7623  138.9093  165.6390 C.ar    1  UNL1       -0.0029
     13 C         142.7266  138.8830  166.7237 C.ar    1  UNL1       -0.0003
     14 C         141.4037  140.2845  169.6430 C.ar    1  UNL1        0.0140
     15 C         140.3680  140.2582  170.7278 C.ar    1  UNL1        0.0011
     16 C         138.9214  140.0694  170.3791 C.ar    1  UNL1        0.0000
     17 C         138.5105  139.9070  168.9456 C.ar    1  UNL1        0.0000
     18 C         139.5461  139.9334  167.8609 C.ar    1  UNL1        0.0000
     19 C         140.9927  140.1221  168.2096 C.ar    1  UNL1        0.0011
     20 O         143.5372  141.7670  169.6682 O.co2   1  UNL1       -0.5446
     21 C         142.8503  140.4733  169.9918 C.2     1  UNL1        0.0729
     22 O         143.6101  139.3684  170.6640 O.co2   1  UNL1       -0.5446
     23 C         143.6947  142.2114  158.3946 C.3     1  UNL1        0.2087
     24 O         142.3302  142.7789  158.1375 O.3     1  UNL1       -0.4453
     25 C         141.7149  143.7281  159.1225 C.2     1  UNL1        0.3458
     26 O         141.9463  145.2040  158.9869 O.2     1  UNL1       -0.2447
     27 C         140.8681  143.2016  160.2431 C.ar    1  UNL1        0.1283
     28 C         140.9101  143.6603  161.6706 C.ar    1  UNL1        0.2121
     29 N         139.8986  142.8661  162.4426 N.ar    1  UNL1       -0.2989
     30 C         139.2313  141.9165  161.4922 C.ar    1  UNL1        0.0626
     31 C         138.1556  140.8899  161.6890 C.ar    1  UNL1        0.0173
     32 C         137.6790  140.0707  160.5264 C.ar    1  UNL1        0.0015
     33 C         138.2782  140.2780  159.1670 C.ar    1  UNL1        0.0001
     34 C         139.3540  141.3046  158.9702 C.ar    1  UNL1        0.0018
     35 C         139.8305  142.1239  160.1328 C.ar    1  UNL1        0.0266
     36 C         139.7157  143.1101  163.9112 C.3     1  UNL1        0.1127
     37 C         140.5445  144.1483  164.6079 C.3     1  UNL1        0.0719
     38 C         141.5560  144.9425  163.8359 C.3     1  UNL1        0.2091
     39 O         141.7389  144.6985  162.3672 O.3     1  UNL1       -0.4611
@<TRIPOS>UNITY_ATOM_ATTR
20 1
charge -1
@<TRIPOS>BOND
     1    20    21   ar
     2    21    22   ar
     3    21    14    1
     4    14    15   ar
     5    15    16   ar
     6    16    17   ar
     7    17    18   ar
     8    18    19   ar
     9    19     8    1
    10     8     9   ar
    11     9    10   ar
    12    10    11   ar
    13    11     7    1
    14     7     1    1
    15     1     2    1
    16     2     3    1
    17     3     4    1
    18     4    23    1
    19    23    24    1
    20    24    25    1
    21    25    26    2
    22    25    27    1
    23    27    28   ar
    24    28    29   ar
    25    29    30   ar
    26    30    31   ar
    27    31    32   ar
    28    32    33   ar
    29    33    34   ar
    30    34    35   ar
    31    29    36    1
    32    36    37    1
    33    37    38    1
    34    38    39    1
    35     4     5    1
    36     5     6    1
    37    11    12   ar
    38    12    13   ar
    39    19    14   ar
    40    13     8   ar
    41     6     1    1
    42    35    27   ar
    43    39    28    1
    44    35    30   ar
@<TRIPOS>MOLECULE
*****
 39 44 0 0 0
SMALL
GASTEIGER

@<TRIPOS>ATOM
      1 N         138.6199  138.6789  162.6130 N.3     1  UNL1       -0.2690
      2 C         137.6981  139.7790  162.1771 C.3     1  UNL1        0.0725
      3 C         137.7374  140.2739  160.7617 C.3     1  UNL1        0.0211
      4 C         138.6986  139.6687  159.7820 C.3     1  UNL1        0.0466
      5 C         139.6204  138.5686  160.2178 C.3     1  UNL1        0.0211
      6 C         139.5811  138.0737  161.6332 C.3     1  UNL1        0.0725
      7 C         138.5806  138.1840  164.0284 C.3     1  UNL1        0.0991
      8 C         140.3831  140.6572  167.3277 C.ar    1  UNL1        0.0000
      9 C         139.2666  139.7022  167.6304 C.ar    1  UNL1       -0.0003
     10 C         138.6658  138.8779  166.5306 C.ar    1  UNL1       -0.0029
     11 C         139.1814  139.0084  165.1281 C.ar    1  UNL1       -0.0061
     12 C         140.2979  139.9633  164.8254 C.ar    1  UNL1       -0.0029
     13 C         140.8987  140.7877  165.9251 C.ar    1  UNL1       -0.0003
     14 C         142.0837  140.9140  169.2749 C.ar    1  UNL1        0.0140
     15 C         142.6846  141.7383  170.3746 C.ar    1  UNL1        0.0011
     16 C         142.1856  143.1302  170.6268 C.ar    1  UNL1        0.0000
     17 C         141.0858  143.6978  169.7792 C.ar    1  UNL1        0.0000
     18 C         140.4849  142.8735  168.6795 C.ar    1  UNL1        0.0000
     19 C         140.9839  141.4815  168.4274 C.ar    1  UNL1        0.0011
     20 O         142.4322  138.4683  170.0797 O.co2   1  UNL1       -0.5446
     21 C         142.5827  139.5221  169.0227 C.2     1  UNL1        0.0729
     22 O         143.2321  139.1838  167.7136 O.co2   1  UNL1       -0.5446
     23 C         138.7379  140.1636  158.3665 C.3     1  UNL1        0.2087
     24 O         139.8196  141.1076  157.9318 O.3     1  UNL1       -0.4453
     25 C         140.0140  142.4086  158.6526 C.2     1  UNL1        0.3458
     26 O         139.5855  143.6940  158.0088 O.2     1  UNL1       -0.2447
     27 C         140.6369  142.4243  160.0170 C.ar    1  UNL1        0.1283
     28 C         140.1954  143.2650  161.1782 C.ar    1  UNL1        0.2121
     29 N         141.0964  142.9624  162.3386 N.ar    1  UNL1       -0.2989
     30 C         142.0948  141.9347  161.8947 C.ar    1  UNL1        0.0626
     31 C         143.2257  141.2588  162.6116 C.ar    1  UNL1        0.0173
     32 C         144.0728  140.2504  161.8936 C.ar    1  UNL1        0.0015
     33 C         143.7888  139.9178  160.4588 C.ar    1  UNL1        0.0001
     34 C         142.6579  140.5937  159.7419 C.ar    1  UNL1        0.0018
     35 C         141.8108  141.6022  160.4598 C.ar    1  UNL1        0.0266
     36 C         140.8912  143.6617  163.6497 C.3     1  UNL1        0.1127
     37 C         139.7851  144.6637  163.8003 C.3     1  UNL1        0.0719
     38 C         138.8841  144.9663  162.6398 C.3     1  UNL1        0.2091
     39 O         139.0893  144.2670  161.3288 O.3     1  UNL1       -0.4611
@<TRIPOS>UNITY_ATOM_ATTR
20 1
charge -1
@<TRIPOS>BOND
     1    20    21   ar
     2    21    22   ar
     3    21    14    1
     4    14    15   ar
     5    15    16   ar
     6    16    17   ar
     7    17    18   ar
     8    18    19   ar
     9    19     8    1
    10     8     9   ar
    11     9    10   ar
    12    10    11   ar
    13    11     7    1
    14     7     1    1
    15     1     2    1
    16     2     3    1
    17     3     4    1
    18     4    23    1
    19    23    24    1
    20    24    25    1
    21    25    26    2
    22    25    27    1
    23    27    28   ar
    24    28    29   ar
    25    29    30   ar
    26    30    31   ar
    27    31    32   ar
    28    32    33   ar
    29    33    34   ar
    30    34    35   ar
    31    29    36    1
    32    36    37    1
    33    37    38    1
    34    38    39    1
    35     4     5    1
    36     5     6    1
    37    11    12   ar
    38    12    13   ar
    39    19    14   ar
    40    13     8   ar
    41     6     1    1
    42    35    27   ar
    43    39    28    1
    44    35    30   ar
@<TRIPOS>MOLECULE
*****
 39 44 0 0 0
SMALL
GASTEIGER

@<TRIPOS>ATOM
      1 N         138.8158  138.7161  162.6331 N.3     1  UNL1       -0.2690
      2 C         139.1543  137.5835  163.5565 C.3     1  UNL1        0.0725
      3 C         138.9296  137.7265  165.0327 C.3     1  UNL1        0.0211
      4 C         138.3664  139.0021  165.5855 C.3     1  UNL1        0.0466
      5 C         138.0279  140.1347  164.6621 C.3     1  UNL1        0.0211
      6 C         138.2526  139.9917  163.1860 C.3     1  UNL1        0.0725
      7 C         139.0405  138.5731  161.1570 C.3     1  UNL1        0.0991
      8 C         139.8857  142.2112  158.6469 C.ar    1  UNL1        0.0000
      9 C         141.0193  141.4390  159.2542 C.ar    1  UNL1       -0.0003
     10 C         140.7375  140.2264  160.0909 C.ar    1  UNL1       -0.0029
     11 C         139.3222  139.7858  160.3203 C.ar    1  UNL1       -0.0061
     12 C         138.1885  140.5579  159.7130 C.ar    1  UNL1       -0.0029
     13 C         138.4703  141.7705  158.8764 C.ar    1  UNL1       -0.0003
     14 C         140.5589  144.7140  158.4676 C.ar    1  UNL1        0.0140
     15 C         140.8406  145.9268  157.6310 C.ar    1  UNL1        0.0011
     16 C         140.7307  145.8492  156.1370 C.ar    1  UNL1        0.0000
     17 C         140.3392  144.5590  155.4797 C.ar    1  UNL1        0.0000
     18 C         140.0575  143.3463  156.3163 C.ar    1  UNL1        0.0000
     19 C         140.1673  143.4238  157.8103 C.ar    1  UNL1        0.0011
     20 O         142.0158  144.7308  160.6187 O.co2   1  UNL1       -0.5446
     21 C         140.6687  144.7916  159.9615 C.2     1  UNL1        0.0729
     22 O         139.4316  144.9299  160.7984 O.co2   1  UNL1       -0.5446
     23 C         138.1418  139.1451  167.0617 C.3     1  UNL1        0.2087
     24 O         139.3071  139.3676  167.9796 O.3     1  UNL1       -0.4453
     25 C         140.0193  140.6876  167.9811 C.2     1  UNL1        0.3458
     26 O         139.8797  141.6138  169.1528 O.2     1  UNL1       -0.2447
     27 C         140.8712  141.0816  166.8110 C.ar    1  UNL1        0.1283
     28 C         140.6969  142.3095  165.9673 C.ar    1  UNL1        0.2121
     29 N         141.7649  142.3036  164.9141 N.ar    1  UNL1       -0.2989
     30 C         142.5993  141.0720  165.1069 C.ar    1  UNL1        0.0626
     31 C         143.7906  140.5408  164.3663 C.ar    1  UNL1        0.0173
     32 C         144.4295  139.2542  164.7982 C.ar    1  UNL1        0.0015
     33 C         143.8772  138.4990  165.9706 C.ar    1  UNL1        0.0001
     34 C         142.6858  139.0303  166.7111 C.ar    1  UNL1        0.0018
     35 C         142.0469  140.3168  166.2793 C.ar    1  UNL1        0.0266
     36 C         141.8397  143.4204  163.9156 C.3     1  UNL1        0.1127
     37 C         140.8465  144.5432  163.9703 C.3     1  UNL1        0.0719
     38 C         139.7785  144.5491  165.0235 C.3     1  UNL1        0.2091
     39 O         139.7037  143.4323  166.0220 O.3     1  UNL1       -0.4611
@<TRIPOS>UNITY_ATOM_ATTR
20 1
charge -1
@<TRIPOS>BOND
     1    20    21   ar
     2    21    22   ar
     3    21    14    1
     4    14    15   ar
     5    15    16   ar
     6    16    17   ar
     7    17    18   ar
     8    18    19   ar
     9    19     8    1
    10     8     9   ar
    11     9    10   ar
    12    10    11   ar
    13    11     7    1
    14     7     1    1
    15     1     2    1
    16     2     3    1
    17     3     4    1
    18     4    23    1
    19    23    24    1
    20    24    25    1
    21    25    26    2
    22    25    27    1
    23    27    28   ar
    24    28    29   ar
    25    29    30   ar
    26    30    31   ar
    27    31    32   ar
    28    32    33   ar
    29    33    34   ar
    30    34    35   ar
    31    29    36    1
    32    36    37    1
    33    37    38    1
    34    38    39    1
    35     4     5    1
    36     5     6    1
    37    11    12   ar
    38    12    13   ar
    39    19    14   ar
    40    13     8   ar
    41     6     1    1
    42    35    27   ar
    43    39    28    1
    44    35    30   ar
