@<TRIPOS>MOLECULE
*****
 27 31 0 0 0
SMALL
GASTEIGER

@<TRIPOS>ATOM
      1 C         138.4769  139.2627  164.6530 C.3     1  UNL1        0.0767
      2 C         138.0515  140.2321  163.5903 C.3     1  UNL1        0.0092
      3 C         138.6252  139.3302  162.5378 C.3     1  UNL1        0.0036
      4 C         138.0658  140.5000  161.7838 C.3     1  UNL1        0.0174
      5 C         138.1707  140.5478  160.2883 C.3     1  UNL1        0.0720
      6 N         138.8349  139.4257  159.5468 N.3     1  UNL1       -0.2738
      7 C         139.3942  138.2559  160.3008 C.3     1  UNL1        0.0720
      8 C         139.2894  138.2082  161.7963 C.3     1  UNL1        0.0174
      9 C         139.0505  138.3608  163.6005 C.3     1  UNL1        0.0092
     10 O         137.2941  138.3996  166.7991 O.2     1  UNL1       -0.2749
     11 C         138.3720  139.2149  166.1485 C.2     1  UNL1        0.2252
     12 N         139.3451  139.9825  166.9934 N.am    1  UNL1       -0.2767
     13 C         140.4230  140.7978  166.3428 C.3     1  UNL1        0.1107
     14 C         141.3961  141.5654  167.1878 C.3     1  UNL1        0.0939
     15 N         141.2912  141.5177  168.6833 N.3     1  UNL1       -0.2711
     16 C         140.2133  140.7023  169.3340 C.3     1  UNL1        0.0939
     17 C         139.2402  139.9348  168.4891 C.3     1  UNL1        0.1107
     18 C         142.2643  142.2853  169.5283 C.3     1  UNL1        0.0576
     19 C         142.1483  143.3573  170.5711 C.3     1  UNL1        0.0160
     20 C         143.6405  143.3708  170.7232 C.3     1  UNL1        0.0028
     21 C         143.7565  142.2988  169.6804 C.3     1  UNL1        0.0160
     22 C         138.9397  139.4736  158.0511 C.3     1  UNL1        0.0625
     23 C         139.7576  138.4481  157.3235 C.3     1  UNL1        0.0481
     24 C         139.8625  138.4959  155.8279 C.3     1  UNL1        0.1435
     25 O         139.1494  139.5692  155.0600 O.3     1  UNL1       -0.3537
     26 C         138.3315  140.5946  155.7877 C.3     1  UNL1        0.1435
     27 C         138.2267  140.5468  157.2833 C.3     1  UNL1        0.0481
@<TRIPOS>BOND
     1    10    11    2
     2    11     1    1
     3     1     2    1
     4     2     3    1
     5     3     4    1
     6     4     5    1
     7     5     6    1
     8     6    22    1
     9    22    23    1
    10    23    24    1
    11    24    25    1
    12    25    26    1
    13    26    27    1
    14     6     7    1
    15     7     8    1
    16     3     9    1
    17    11    12   am
    18    12    13    1
    19    13    14    1
    20    14    15    1
    21    15    18    1
    22    18    19    1
    23    19    20    1
    24    20    21    1
    25    15    16    1
    26    16    17    1
    27     9     1    1
    28    17    12    1
    29     8     3    1
    30    21    18    1
    31    27    22    1
@<TRIPOS>MOLECULE
*****
 27 31 0 0 0
SMALL
GASTEIGER

@<TRIPOS>ATOM
      1 C         142.5405  142.6821  161.7098 C.3     1  UNL1        0.0767
      2 C         141.2553  142.2238  162.3329 C.3     1  UNL1        0.0092
      3 C         141.8429  142.4305  163.6974 C.3     1  UNL1        0.0036
      4 C         140.4494  141.9343  163.9460 C.3     1  UNL1        0.0174
      5 C         139.9562  141.7565  165.3514 C.3     1  UNL1        0.0720
      6 N         140.8565  142.0748  166.5081 N.3     1  UNL1       -0.2738
      7 C         142.2501  142.5709  166.2595 C.3     1  UNL1        0.0720
      8 C         142.7433  142.7488  164.8542 C.3     1  UNL1        0.0174
      9 C         143.1281  142.8888  163.0744 C.3     1  UNL1        0.0092
     10 O         144.2510  142.1184  159.8373 O.2     1  UNL1       -0.2749
     11 C         143.0337  142.8599  160.3045 C.2     1  UNL1        0.2252
     12 N         142.3095  143.7793  159.3663 N.am    1  UNL1       -0.2767
     13 C         141.0922  144.5208  159.8334 C.3     1  UNL1        0.1107
     14 C         140.3680  145.4403  158.8951 C.3     1  UNL1        0.0939
     15 N         140.8612  145.6181  157.4898 N.3     1  UNL1       -0.2711
     16 C         142.0786  144.8766  157.0226 C.3     1  UNL1        0.0939
     17 C         142.8027  143.9572  157.9608 C.3     1  UNL1        0.1107
     18 C         140.1371  146.5375  156.5515 C.3     1  UNL1        0.0576
     19 C         139.0086  147.5165  156.6861 C.3     1  UNL1        0.0160
     20 C         139.1129  147.8378  155.2246 C.3     1  UNL1        0.0028
     21 C         140.2414  146.8588  155.0901 C.3     1  UNL1        0.0160
     22 C         140.3633  141.8969  167.9136 C.3     1  UNL1        0.0625
     23 C         139.7777  140.5842  168.3424 C.3     1  UNL1        0.0481
     24 C         139.2844  140.4063  169.7478 C.3     1  UNL1        0.1435
     25 O         139.3768  141.5411  170.7243 O.3     1  UNL1       -0.3537
     26 C         139.9624  142.8539  170.2954 C.3     1  UNL1        0.1435
     27 C         140.4556  143.0317  168.8901 C.3     1  UNL1        0.0481
@<TRIPOS>BOND
     1    10    11    2
     2    11     1    1
     3     1     2    1
     4     2     3    1
     5     3     4    1
     6     4     5    1
     7     5     6    1
     8     6    22    1
     9    22    23    1
    10    23    24    1
    11    24    25    1
    12    25    26    1
    13    26    27    1
    14     6     7    1
    15     7     8    1
    16     3     9    1
    17    11    12   am
    18    12    13    1
    19    13    14    1
    20    14    15    1
    21    15    18    1
    22    18    19    1
    23    19    20    1
    24    20    21    1
    25    15    16    1
    26    16    17    1
    27     9     1    1
    28    17    12    1
    29     8     3    1
    30    21    18    1
    31    27    22    1
@<TRIPOS>MOLECULE
*****
 27 31 0 0 0
SMALL
GASTEIGER

@<TRIPOS>ATOM
      1 C         139.4953  140.3821  161.8035 C.3     1  UNL1        0.0767
      2 C         140.5355  141.3328  162.3174 C.3     1  UNL1        0.0092
      3 C         140.1339  141.0108  163.7263 C.3     1  UNL1        0.0036
      4 C         141.2426  142.0125  163.8580 C.3     1  UNL1        0.0174
      5 C         141.6941  142.4570  165.2175 C.3     1  UNL1        0.0720
      6 N         141.0370  141.8999  166.4454 N.3     1  UNL1       -0.2738
      7 C         139.9283  140.8982  166.3138 C.3     1  UNL1        0.0720
      8 C         139.4767  140.4536  164.9542 C.3     1  UNL1        0.0174
      9 C         139.0937  140.0600  163.2124 C.3     1  UNL1        0.0092
     10 O         137.6499  140.2411  159.9801 O.2     1  UNL1       -0.2749
     11 C         139.0437  139.9375  160.4439 C.2     1  UNL1        0.2252
     12 N         139.9860  139.1894  159.5482 N.am    1  UNL1       -0.2767
     13 C         141.3798  138.8858  160.0120 C.3     1  UNL1        0.1107
     14 C         142.3221  138.1376  159.1162 C.3     1  UNL1        0.0939
     15 N         141.8706  137.6931  157.7567 N.3     1  UNL1       -0.2711
     16 C         140.4768  137.9967  157.2928 C.3     1  UNL1        0.0939
     17 C         139.5345  138.7448  158.1885 C.3     1  UNL1        0.1107
     18 C         142.8128  136.9449  156.8609 C.3     1  UNL1        0.0576
     19 C         143.2600  135.5176  156.7472 C.3     1  UNL1        0.0160
     20 C         144.1455  135.8869  155.5941 C.3     1  UNL1        0.0028
     21 C         143.6984  137.3142  155.7079 C.3     1  UNL1        0.0160
     22 C         141.4885  142.3444  167.8050 C.3     1  UNL1        0.0625
     23 C         142.8773  142.0274  168.2749 C.3     1  UNL1        0.0481
     24 C         143.3289  142.4720  169.6345 C.3     1  UNL1        0.1435
     25 O         142.3917  143.2336  170.5242 O.3     1  UNL1       -0.3537
     26 C         141.0028  143.5506  170.0543 C.3     1  UNL1        0.1435
     27 C         140.5513  143.1061  168.6947 C.3     1  UNL1        0.0481
@<TRIPOS>BOND
     1    10    11    2
     2    11     1    1
     3     1     2    1
     4     2     3    1
     5     3     4    1
     6     4     5    1
     7     5     6    1
     8     6    22    1
     9    22    23    1
    10    23    24    1
    11    24    25    1
    12    25    26    1
    13    26    27    1
    14     6     7    1
    15     7     8    1
    16     3     9    1
    17    11    12   am
    18    12    13    1
    19    13    14    1
    20    14    15    1
    21    15    18    1
    22    18    19    1
    23    19    20    1
    24    20    21    1
    25    15    16    1
    26    16    17    1
    27     9     1    1
    28    17    12    1
    29     8     3    1
    30    21    18    1
    31    27    22    1
@<TRIPOS>MOLECULE
*****
 27 31 0 0 0
SMALL
GASTEIGER

@<TRIPOS>ATOM
      1 C         140.5190  142.8435  161.8095 C.3     1  UNL1        0.0767
      2 C         140.5672  141.6101  162.6618 C.3     1  UNL1        0.0092
      3 C         140.4365  142.4561  163.8936 C.3     1  UNL1        0.0036
      4 C         140.5169  141.0458  164.3980 C.3     1  UNL1        0.0174
      5 C         140.4586  140.7720  165.8716 C.3     1  UNL1        0.0720
      6 N         140.3198  141.9084  166.8408 N.3     1  UNL1       -0.2738
      7 C         140.2393  143.3187  166.3363 C.3     1  UNL1        0.0720
      8 C         140.2976  143.5926  164.8627 C.3     1  UNL1        0.0174
      9 C         140.3882  143.6895  163.0412 C.3     1  UNL1        0.0092
     10 O         139.3393  143.5401  159.6020 O.2     1  UNL1       -0.2749
     11 C         140.5773  143.1173  160.3359 C.2     1  UNL1        0.2252
     12 N         141.8737  142.9685  159.5962 N.am    1  UNL1       -0.2767
     13 C         143.1117  142.5458  160.3301 C.3     1  UNL1        0.1107
     14 C         144.4081  142.3969  159.5903 C.3     1  UNL1        0.0939
     15 N         144.4664  142.6708  158.1167 N.3     1  UNL1       -0.2711
     16 C         143.2284  143.0935  157.3828 C.3     1  UNL1        0.0939
     17 C         141.9321  143.2423  158.1225 C.3     1  UNL1        0.1107
     18 C         145.7628  142.5219  157.3769 C.3     1  UNL1        0.0576
     19 C         147.1602  143.0309  157.5726 C.3     1  UNL1        0.0160
     20 C         147.5963  142.3114  156.3307 C.3     1  UNL1        0.0028
     21 C         146.1989  141.8024  156.1351 C.3     1  UNL1        0.0160
     22 C         140.2614  141.6345  168.3145 C.3     1  UNL1        0.0625
     23 C         140.1262  140.2254  168.8106 C.3     1  UNL1        0.0481
     24 C         140.0678  139.9515  170.2843 C.3     1  UNL1        0.1435
     25 O         140.1448  141.0867  171.2617 O.3     1  UNL1       -0.3537
     26 C         140.2801  142.4958  170.7655 C.3     1  UNL1        0.1435
     27 C         140.3384  142.7697  169.2919 C.3     1  UNL1        0.0481
@<TRIPOS>BOND
     1    10    11    2
     2    11     1    1
     3     1     2    1
     4     2     3    1
     5     3     4    1
     6     4     5    1
     7     5     6    1
     8     6    22    1
     9    22    23    1
    10    23    24    1
    11    24    25    1
    12    25    26    1
    13    26    27    1
    14     6     7    1
    15     7     8    1
    16     3     9    1
    17    11    12   am
    18    12    13    1
    19    13    14    1
    20    14    15    1
    21    15    18    1
    22    18    19    1
    23    19    20    1
    24    20    21    1
    25    15    16    1
    26    16    17    1
    27     9     1    1
    28    17    12    1
    29     8     3    1
    30    21    18    1
    31    27    22    1
@<TRIPOS>MOLECULE
*****
 27 31 0 0 0
SMALL
GASTEIGER

@<TRIPOS>ATOM
      1 C         140.6506  144.7648  162.4640 C.3     1  UNL1        0.0767
      2 C         139.9262  144.1570  163.6284 C.3     1  UNL1        0.0092
      3 C         141.2358  143.7218  164.2162 C.3     1  UNL1        0.0036
      4 C         140.1971  143.2474  165.1887 C.3     1  UNL1        0.0174
      5 C         140.6109  142.5099  166.4276 C.3     1  UNL1        0.0720
      6 N         142.0634  142.2469  166.6939 N.3     1  UNL1       -0.2738
      7 C         143.1022  142.7212  165.7214 C.3     1  UNL1        0.0720
      8 C         142.6884  143.4587  164.4825 C.3     1  UNL1        0.0174
      9 C         141.9603  144.3295  163.0518 C.3     1  UNL1        0.0092
     10 O         139.2102  146.5926  161.3090 O.2     1  UNL1       -0.2749
     11 C         140.2369  145.5022  161.2251 C.2     1  UNL1        0.2252
     12 N         140.8497  145.1493  159.9023 N.am    1  UNL1       -0.2767
     13 C         141.8763  144.0588  159.8184 C.3     1  UNL1        0.1107
     14 C         142.4891  143.7059  158.4955 C.3     1  UNL1        0.0939
     15 N         142.0753  144.4433  157.2567 N.3     1  UNL1       -0.2711
     16 C         141.0487  145.5338  157.3406 C.3     1  UNL1        0.0939
     17 C         140.4359  145.8867  158.6633 C.3     1  UNL1        0.1107
     18 C         142.6882  144.0904  155.9339 C.3     1  UNL1        0.0576
     19 C         143.2922  142.8518  155.3414 C.3     1  UNL1        0.0160
     20 C         143.5549  143.5912  154.0630 C.3     1  UNL1        0.0028
     21 C         142.9508  144.8298  154.6555 C.3     1  UNL1        0.0160
     22 C         142.4772  141.5094  167.9329 C.3     1  UNL1        0.0625
     23 C         143.2186  142.2278  169.0210 C.3     1  UNL1        0.0481
     24 C         143.6324  141.4903  170.2600 C.3     1  UNL1        0.1435
     25 O         143.3047  140.0343  170.4108 O.3     1  UNL1       -0.3537
     26 C         142.5632  139.3159  169.3226 C.3     1  UNL1        0.1435
     27 C         142.1495  140.0534  168.0837 C.3     1  UNL1        0.0481
@<TRIPOS>BOND
     1    10    11    2
     2    11     1    1
     3     1     2    1
     4     2     3    1
     5     3     4    1
     6     4     5    1
     7     5     6    1
     8     6    22    1
     9    22    23    1
    10    23    24    1
    11    24    25    1
    12    25    26    1
    13    26    27    1
    14     6     7    1
    15     7     8    1
    16     3     9    1
    17    11    12   am
    18    12    13    1
    19    13    14    1
    20    14    15    1
    21    15    18    1
    22    18    19    1
    23    19    20    1
    24    20    21    1
    25    15    16    1
    26    16    17    1
    27     9     1    1
    28    17    12    1
    29     8     3    1
    30    21    18    1
    31    27    22    1
@<TRIPOS>MOLECULE
*****
 27 31 0 0 0
SMALL
GASTEIGER

@<TRIPOS>ATOM
      1 C         142.4727  138.1252  159.1117 C.3     1  UNL1        0.0767
      2 C         143.3862  138.1652  160.3007 C.3     1  UNL1        0.0092
      3 C         142.2207  138.4956  161.1853 C.3     1  UNL1        0.0036
      4 C         143.4048  138.4487  162.1048 C.3     1  UNL1        0.0174
      5 C         143.2266  138.7106  163.5710 C.3     1  UNL1        0.0720
      6 N         141.8643  139.0194  164.1176 N.3     1  UNL1       -0.2738
      7 C         140.6802  139.0664  163.1980 C.3     1  UNL1        0.0720
      8 C         140.8584  138.8045  161.7319 C.3     1  UNL1        0.0174
      9 C         141.3071  138.4557  159.9962 C.3     1  UNL1        0.0092
     10 O         142.4772  138.9788  156.6579 O.2     1  UNL1       -0.2749
     11 C         142.6508  137.8633  157.6456 C.2     1  UNL1        0.2252
     12 N         143.0027  136.4859  157.1671 N.am    1  UNL1       -0.2767
     13 C         143.1763  135.3704  158.1548 C.3     1  UNL1        0.1107
     14 C         143.5282  133.9930  157.6763 C.3     1  UNL1        0.0939
     15 N         143.7064  133.7311  156.2102 N.3     1  UNL1       -0.2711
     16 C         143.5327  134.8466  155.2225 C.3     1  UNL1        0.0939
     17 C         143.1809  136.2240  155.7009 C.3     1  UNL1        0.1107
     18 C         144.0582  132.3537  155.7317 C.3     1  UNL1        0.0576
     19 C         143.6078  131.4760  154.6018 C.3     1  UNL1        0.0160
     20 C         144.5559  130.4056  155.0551 C.3     1  UNL1        0.0028
     21 C         145.0063  131.2833  156.1851 C.3     1  UNL1        0.0160
     22 C         141.6862  139.2813  165.5838 C.3     1  UNL1        0.0625
     23 C         142.8413  139.1013  166.5236 C.3     1  UNL1        0.0481
     24 C         142.6631  139.3632  167.9898 C.3     1  UNL1        0.1435
     25 O         141.3298  139.8052  168.5161 O.3     1  UNL1       -0.3537
     26 C         140.1747  139.9852  167.5762 C.3     1  UNL1        0.1435
     27 C         140.3529  139.7233  166.1101 C.3     1  UNL1        0.0481
@<TRIPOS>BOND
     1    10    11    2
     2    11     1    1
     3     1     2    1
     4     2     3    1
     5     3     4    1
     6     4     5    1
     7     5     6    1
     8     6    22    1
     9    22    23    1
    10    23    24    1
    11    24    25    1
    12    25    26    1
    13    26    27    1
    14     6     7    1
    15     7     8    1
    16     3     9    1
    17    11    12   am
    18    12    13    1
    19    13    14    1
    20    14    15    1
    21    15    18    1
    22    18    19    1
    23    19    20    1
    24    20    21    1
    25    15    16    1
    26    16    17    1
    27     9     1    1
    28    17    12    1
    29     8     3    1
    30    21    18    1
    31    27    22    1
@<TRIPOS>MOLECULE
*****
 27 31 0 0 0
SMALL
GASTEIGER

@<TRIPOS>ATOM
      1 C         142.6803  141.9817  161.5733 C.3     1  UNL1        0.0767
      2 C         143.2897  141.7160  162.9179 C.3     1  UNL1        0.0092
      3 C         141.9435  141.8766  163.5598 C.3     1  UNL1        0.0036
      4 C         142.8806  141.5784  164.6925 C.3     1  UNL1        0.0174
      5 C         142.3596  141.5041  166.0971 C.3     1  UNL1        0.0720
      6 N         140.9015  141.7279  166.3691 N.3     1  UNL1       -0.2738
      7 C         139.9645  142.0261  165.2364 C.3     1  UNL1        0.0720
      8 C         140.4855  142.1004  163.8318 C.3     1  UNL1        0.0174
      9 C         141.3341  142.1423  162.2152 C.3     1  UNL1        0.0092
     10 O         143.7494  143.3481  159.6394 O.2     1  UNL1       -0.2749
     11 C         143.2013  142.0561  160.1686 C.2     1  UNL1        0.2252
     12 N         143.1742  140.8383  159.2933 N.am    1  UNL1       -0.2767
     13 C         142.6261  139.5462  159.8226 C.3     1  UNL1        0.1107
     14 C         142.5991  138.3284  158.9471 C.3     1  UNL1        0.0939
     15 N         143.1200  138.4028  157.5425 N.3     1  UNL1       -0.2711
     16 C         143.6681  139.6948  157.0132 C.3     1  UNL1        0.0939
     17 C         143.6952  140.9126  157.8886 C.3     1  UNL1        0.1107
     18 C         143.0930  137.1850  156.6672 C.3     1  UNL1        0.0576
     19 C         142.0974  136.0966  156.3945 C.3     1  UNL1        0.0160
     20 C         143.0547  135.4627  155.4291 C.3     1  UNL1        0.0028
     21 C         144.0502  136.5511  155.7018 C.3     1  UNL1        0.0160
     22 C         140.3806  141.6536  167.7738 C.3     1  UNL1        0.0625
     23 C         139.6912  140.4107  168.2532 C.3     1  UNL1        0.0481
     24 C         139.1702  140.3364  169.6579 C.3     1  UNL1        0.1435
     25 O         139.3387  141.5049  170.5831 O.3     1  UNL1       -0.3537
     26 C         140.0281  142.7479  170.1036 C.3     1  UNL1        0.1435
     27 C         140.5490  142.8222  168.6990 C.3     1  UNL1        0.0481
@<TRIPOS>BOND
     1    10    11    2
     2    11     1    1
     3     1     2    1
     4     2     3    1
     5     3     4    1
     6     4     5    1
     7     5     6    1
     8     6    22    1
     9    22    23    1
    10    23    24    1
    11    24    25    1
    12    25    26    1
    13    26    27    1
    14     6     7    1
    15     7     8    1
    16     3     9    1
    17    11    12   am
    18    12    13    1
    19    13    14    1
    20    14    15    1
    21    15    18    1
    22    18    19    1
    23    19    20    1
    24    20    21    1
    25    15    16    1
    26    16    17    1
    27     9     1    1
    28    17    12    1
    29     8     3    1
    30    21    18    1
    31    27    22    1
@<TRIPOS>MOLECULE
*****
 27 31 0 0 0
SMALL
GASTEIGER

@<TRIPOS>ATOM
      1 C         143.3101  138.5113  164.7695 C.3     1  UNL1        0.0767
      2 C         144.1135  139.1321  163.6653 C.3     1  UNL1        0.0092
      3 C         143.1387  138.6001  162.6569 C.3     1  UNL1        0.0036
      4 C         144.1670  139.3375  161.8514 C.3     1  UNL1        0.0174
      5 C         144.0458  139.4002  160.3576 C.3     1  UNL1        0.0720
      6 N         142.8963  138.7256  159.6694 N.3     1  UNL1       -0.2738
      7 C         141.8680  137.9883  160.4749 C.3     1  UNL1        0.0720
      8 C         141.9893  137.9255  161.9687 C.3     1  UNL1        0.0174
      9 C         142.3354  137.9793  163.7611 C.3     1  UNL1        0.0092
     10 O         144.2865  137.3951  166.9027 O.2     1  UNL1       -0.2749
     11 C         143.4314  138.4485  166.2632 C.2     1  UNL1        0.2252
     12 N         142.6974  139.4392  167.1175 N.am    1  UNL1       -0.2767
     13 C         141.8423  140.4927  166.4780 C.3     1  UNL1        0.1107
     14 C         141.1083  141.4834  167.3324 C.3     1  UNL1        0.0939
     15 N         141.2295  141.4206  168.8261 N.3     1  UNL1       -0.2711
     16 C         142.0847  140.3672  169.4656 C.3     1  UNL1        0.0939
     17 C         142.8186  139.3765  168.6113 C.3     1  UNL1        0.1107
     18 C         140.4956  142.4113  169.6804 C.3     1  UNL1        0.0576
     19 C         139.4319  142.3207  170.7341 C.3     1  UNL1        0.0160
     20 C         139.4576  143.8125  170.8886 C.3     1  UNL1        0.0028
     21 C         140.5213  143.9031  169.8348 C.3     1  UNL1        0.0160
     22 C         142.7751  138.7884  158.1756 C.3     1  UNL1        0.0625
     23 C         143.3377  139.9596  157.4261 C.3     1  UNL1        0.0481
     24 C         143.2165  140.0224  155.9322 C.3     1  UNL1        0.1435
     25 O         142.5327  138.9140  155.1880 O.3     1  UNL1       -0.3537
     26 C         141.9702  137.7428  155.9376 C.3     1  UNL1        0.1435
     27 C         142.0914  137.6800  157.4313 C.3     1  UNL1        0.0481
@<TRIPOS>BOND
     1    10    11    2
     2    11     1    1
     3     1     2    1
     4     2     3    1
     5     3     4    1
     6     4     5    1
     7     5     6    1
     8     6    22    1
     9    22    23    1
    10    23    24    1
    11    24    25    1
    12    25    26    1
    13    26    27    1
    14     6     7    1
    15     7     8    1
    16     3     9    1
    17    11    12   am
    18    12    13    1
    19    13    14    1
    20    14    15    1
    21    15    18    1
    22    18    19    1
    23    19    20    1
    24    20    21    1
    25    15    16    1
    26    16    17    1
    27     9     1    1
    28    17    12    1
    29     8     3    1
    30    21    18    1
    31    27    22    1
@<TRIPOS>MOLECULE
*****
 27 31 0 0 0
SMALL
GASTEIGER

@<TRIPOS>ATOM
      1 C         141.6036  138.5278  158.1532 C.3     1  UNL1        0.0767
      2 C         142.6013  137.4124  158.0498 C.3     1  UNL1        0.0092
      3 C         141.8516  136.8501  156.8786 C.3     1  UNL1        0.0036
      4 C         143.0093  135.9184  157.0820 C.3     1  UNL1        0.0174
      5 C         143.1846  134.7322  156.1808 C.3     1  UNL1        0.0720
      6 N         142.2021  134.4777  155.0763 N.3     1  UNL1       -0.2738
      7 C         141.0443  135.4095  154.8729 C.3     1  UNL1        0.0720
      8 C         140.8691  136.5957  155.7741 C.3     1  UNL1        0.0174
      9 C         140.8539  137.9654  156.9820 C.3     1  UNL1        0.0092
     10 O         141.8867  141.0702  158.6067 O.2     1  UNL1       -0.2749
     11 C         141.4284  139.7139  159.0544 C.2     1  UNL1        0.2252
     12 N         140.7948  139.5439  160.4033 N.am    1  UNL1       -0.2767
     13 C         140.3364  138.1876  160.8510 C.3     1  UNL1        0.1107
     14 C         139.7028  138.0175  162.1999 C.3     1  UNL1        0.0939
     15 N         139.5275  139.2037  163.1011 N.3     1  UNL1       -0.2711
     16 C         139.9859  140.5600  162.6534 C.3     1  UNL1        0.0939
     17 C         140.6195  140.7301  161.3045 C.3     1  UNL1        0.1107
     18 C         138.8939  139.0337  164.4500 C.3     1  UNL1        0.0576
     19 C         138.6907  137.8815  165.3889 C.3     1  UNL1        0.0160
     20 C         137.9978  138.7931  166.3578 C.3     1  UNL1        0.0028
     21 C         138.2009  139.9453  165.4189 C.3     1  UNL1        0.0160
     22 C         142.3774  133.2915  154.1751 C.3     1  UNL1        0.0625
     23 C         141.6367  133.2231  152.8726 C.3     1  UNL1        0.0481
     24 C         141.8120  132.0369  151.9714 C.3     1  UNL1        0.1435
     25 O         142.7281  130.9190  152.3727 O.3     1  UNL1       -0.3537
     26 C         143.4689  130.9873  153.6753 C.3     1  UNL1        0.1435
     27 C         143.2935  132.1736  154.5765 C.3     1  UNL1        0.0481
@<TRIPOS>BOND
     1    10    11    2
     2    11     1    1
     3     1     2    1
     4     2     3    1
     5     3     4    1
     6     4     5    1
     7     5     6    1
     8     6    22    1
     9    22    23    1
    10    23    24    1
    11    24    25    1
    12    25    26    1
    13    26    27    1
    14     6     7    1
    15     7     8    1
    16     3     9    1
    17    11    12   am
    18    12    13    1
    19    13    14    1
    20    14    15    1
    21    15    18    1
    22    18    19    1
    23    19    20    1
    24    20    21    1
    25    15    16    1
    26    16    17    1
    27     9     1    1
    28    17    12    1
    29     8     3    1
    30    21    18    1
    31    27    22    1
