@<TRIPOS>MOLECULE
*****
 34 38 0 0 0
SMALL
GASTEIGER

@<TRIPOS>ATOM
      1 C         141.8896  141.7159  168.5085 C.ar    1  UNL1        0.1059
      2 C         140.5334  141.0800  168.5878 C.ar    1  UNL1        0.0183
      3 C         140.0277  140.2471  167.4474 C.ar    1  UNL1        0.0015
      4 C         140.8784  140.0502  166.2276 C.ar    1  UNL1        0.0045
      5 C         142.2346  140.6861  166.1483 C.ar    1  UNL1        0.0549
      6 C         142.7402  141.5189  167.2888 C.ar    1  UNL1        0.0229
      7 C         143.0851  140.4891  164.9285 C.2     1  UNL1        0.2496
      8 O         144.2143  139.5020  164.9530 O.2     1  UNL1       -0.2699
      9 N         142.8063  141.2791  163.6843 N.am    1  UNL1       -0.2661
     10 C         143.5672  141.1905  162.3946 C.3     1  UNL1        0.1236
     11 C         142.9488  142.1532  161.4246 C.ar    1  UNL1        0.0338
     12 C         143.0369  142.6934  160.0280 C.ar    1  UNL1        0.0991
     13 N         141.9483  143.7108  159.8550 N.ar    1  UNL1       -0.2271
     14 N         141.1875  143.7994  161.1447 N.ar    1  UNL1       -0.1680
     15 C         141.8059  142.8367  162.1148 C.ar    1  UNL1        0.0981
     16 C         141.7178  142.2965  163.5113 C.3     1  UNL1        0.1414
     17 C         141.6696  144.5008  158.6108 C.ar    1  UNL1        0.1042
     18 C         142.5088  144.2910  157.3854 C.ar    1  UNL1        0.1181
     19 N         142.2301  145.0810  156.1411 N.ar    1  UNL1       -0.2384
     20 C         141.1121  146.0809  156.1224 C.ar    1  UNL1        0.1285
     21 C         140.2729  146.2908  157.3478 C.ar    1  UNL1        0.1607
     22 F         139.1550  147.2908  157.3289 F       1  UNL1       -0.2025
     23 C         140.5517  145.5007  158.5920 C.ar    1  UNL1        0.0520
     24 C         140.3726  139.2173  165.0872 C.ar    1  UNL1        0.0024
     25 C         141.0344  137.9113  164.7611 C.ar    1  UNL1        0.0001
     26 C         140.5287  137.0784  163.6207 C.ar    1  UNL1        0.0023
     27 C         139.3612  137.5515  162.8063 C.ar    1  UNL1        0.0296
     28 C         138.6995  138.8575  163.1324 C.ar    1  UNL1        0.1401
     29 F         137.5320  139.3307  162.3181 F       1  UNL1       -0.2042
     30 C         139.2052  139.6904  164.2729 C.ar    1  UNL1        0.0296
     31 C         142.9011  143.3816  170.7894 C.3     1  UNL1        0.1816
     32 S         142.3954  142.5487  169.6489 S.O2    1  UNL1        0.0105
     33 O         141.0716  142.4063  170.3400 O.2     1  UNL1       -0.1686
     34 O         143.7191  142.6912  168.9579 O.2     1  UNL1       -0.1686
@<TRIPOS>BOND
     1    31    32    1
     2    32    33    2
     3    32    34    2
     4    32     1    1
     5     1     2   ar
     6     2     3   ar
     7     3     4   ar
     8     4    24    1
     9    24    25   ar
    10    25    26   ar
    11    26    27   ar
    12    27    28   ar
    13    28    29    1
    14    28    30   ar
    15     4     5   ar
    16     5     7    1
    17     7     8    2
    18     7     9   am
    19     9    10    1
    20    10    11    1
    21    11    12   ar
    22    12    13   ar
    23    13    17    1
    24    17    18   ar
    25    18    19   ar
    26    19    20   ar
    27    20    21   ar
    28    21    22    1
    29    21    23   ar
    30    13    14   ar
    31    14    15   ar
    32    15    16    1
    33     5     6   ar
    34     6     1   ar
    35    30    24   ar
    36    16     9    1
    37    15    11   ar
    38    23    17   ar
@<TRIPOS>MOLECULE
*****
 34 38 0 0 0
SMALL
GASTEIGER

@<TRIPOS>ATOM
      1 C         141.5369  140.3882  168.0164 C.ar    1  UNL1        0.1059
      2 C         141.7685  141.8689  168.0782 C.ar    1  UNL1        0.0183
      3 C         141.2074  142.7610  167.0108 C.ar    1  UNL1        0.0015
      4 C         140.4147  142.1722  165.8816 C.ar    1  UNL1        0.0045
      5 C         140.1831  140.6915  165.8197 C.ar    1  UNL1        0.0549
      6 C         140.7443  139.7995  166.8872 C.ar    1  UNL1        0.0229
      7 C         139.3904  140.1029  164.6905 C.2     1  UNL1        0.2496
      8 O         137.9255  139.8308  164.8644 O.2     1  UNL1       -0.2699
      9 N         140.0625  139.7863  163.3875 N.am    1  UNL1       -0.2661
     10 C         139.4031  139.1982  162.1753 C.3     1  UNL1        0.1236
     11 C         140.4452  139.0507  161.1064 C.ar    1  UNL1        0.0338
     12 C         140.6817  138.5961  159.6967 C.ar    1  UNL1        0.0991
     13 N         142.1313  138.8121  159.3771 N.ar    1  UNL1       -0.2271
     14 N         142.7907  139.4002  160.5893 N.ar    1  UNL1       -0.1680
     15 C         141.7486  139.5477  161.6581 C.ar    1  UNL1        0.0981
     16 C         141.5121  140.0023  163.0678 C.3     1  UNL1        0.1414
     17 C         142.8034  138.4955  158.0740 C.ar    1  UNL1        0.1042
     18 C         143.5866  139.5551  157.3572 C.ar    1  UNL1        0.1181
     19 N         144.2588  139.2386  156.0541 N.ar    1  UNL1       -0.2384
     20 C         144.1477  137.8624  155.4679 C.ar    1  UNL1        0.1285
     21 C         143.3645  136.8028  156.1847 C.ar    1  UNL1        0.1607
     22 F         143.2535  135.4265  155.5983 F       1  UNL1       -0.2025
     23 C         142.6923  137.1193  157.4877 C.ar    1  UNL1        0.0520
     24 C         139.8535  143.0643  164.8142 C.ar    1  UNL1        0.0024
     25 C         138.3822  143.3536  164.7754 C.ar    1  UNL1        0.0001
     26 C         137.8211  144.2457  163.7080 C.ar    1  UNL1        0.0023
     27 C         138.7313  144.8485  162.6794 C.ar    1  UNL1        0.0296
     28 C         140.2026  144.5592  162.7181 C.ar    1  UNL1        0.1401
     29 F         141.1128  145.1621  161.6895 F       1  UNL1       -0.2042
     30 C         140.7637  143.6672  163.7855 C.ar    1  UNL1        0.0296
     31 C         142.6592  138.6040  170.1511 C.3     1  UNL1        0.1816
     32 S         142.0981  139.4961  169.0837 S.O2    1  UNL1        0.0105
     33 O         143.1310  138.9924  168.1198 O.2     1  UNL1       -0.1686
     34 O         141.0651  139.9998  170.0477 O.2     1  UNL1       -0.1686
@<TRIPOS>BOND
     1    31    32    1
     2    32    33    2
     3    32    34    2
     4    32     1    1
     5     1     2   ar
     6     2     3   ar
     7     3     4   ar
     8     4    24    1
     9    24    25   ar
    10    25    26   ar
    11    26    27   ar
    12    27    28   ar
    13    28    29    1
    14    28    30   ar
    15     4     5   ar
    16     5     7    1
    17     7     8    2
    18     7     9   am
    19     9    10    1
    20    10    11    1
    21    11    12   ar
    22    12    13   ar
    23    13    17    1
    24    17    18   ar
    25    18    19   ar
    26    19    20   ar
    27    20    21   ar
    28    21    22    1
    29    21    23   ar
    30    13    14   ar
    31    14    15   ar
    32    15    16    1
    33     5     6   ar
    34     6     1   ar
    35    30    24   ar
    36    16     9    1
    37    15    11   ar
    38    23    17   ar
@<TRIPOS>MOLECULE
*****
 34 38 0 0 0
SMALL
GASTEIGER

@<TRIPOS>ATOM
      1 C         141.3960  140.4466  168.1371 C.ar    1  UNL1        0.1059
      2 C         141.3752  141.9336  168.3331 C.ar    1  UNL1        0.0183
      3 C         140.7811  142.8208  167.2796 C.ar    1  UNL1        0.0015
      4 C         140.2078  142.2208  166.0300 C.ar    1  UNL1        0.0045
      5 C         140.2285  140.7338  165.8340 C.ar    1  UNL1        0.0549
      6 C         140.8227  139.8467  166.8876 C.ar    1  UNL1        0.0229
      7 C         139.6552  140.1340  164.5844 C.2     1  UNL1        0.2496
      8 O         138.2822  139.5301  164.6039 O.2     1  UNL1       -0.2699
      9 N         140.4547  140.1380  163.3153 N.am    1  UNL1       -0.2661
     10 C         140.0157  139.5782  161.9948 C.3     1  UNL1        0.1236
     11 C         141.1234  139.7968  161.0072 C.ar    1  UNL1        0.0338
     12 C         141.5367  139.5859  159.5808 C.ar    1  UNL1        0.0991
     13 N         142.9157  140.1506  159.4094 N.ar    1  UNL1       -0.2271
     14 N         143.3548  140.7104  160.7300 N.ar    1  UNL1       -0.1680
     15 C         142.2470  140.4918  161.7175 C.ar    1  UNL1        0.0981
     16 C         141.8338  140.7027  163.1439 C.3     1  UNL1        0.1414
     17 C         143.7153  140.1546  158.1403 C.ar    1  UNL1        0.1042
     18 C         143.4964  139.0843  157.1125 C.ar    1  UNL1        0.1181
     19 N         144.2959  139.0883  155.8434 N.ar    1  UNL1       -0.2384
     20 C         145.3144  140.1628  155.6021 C.ar    1  UNL1        0.1285
     21 C         145.5334  141.2331  156.6299 C.ar    1  UNL1        0.1607
     22 F         146.5520  142.3076  156.3885 F       1  UNL1       -0.2025
     23 C         144.7338  141.2291  157.8990 C.ar    1  UNL1        0.0520
     24 C         139.6137  143.1079  164.9764 C.ar    1  UNL1        0.0024
     25 C         138.1470  143.0316  164.6713 C.ar    1  UNL1        0.0001
     26 C         137.5529  143.9187  163.6178 C.ar    1  UNL1        0.0023
     27 C         138.4254  144.8823  162.8693 C.ar    1  UNL1        0.0296
     28 C         139.8921  144.9586  163.1743 C.ar    1  UNL1        0.1401
     29 F         140.7646  145.9221  162.4258 F       1  UNL1       -0.2042
     30 C         140.4862  144.0715  164.2279 C.ar    1  UNL1        0.0296
     31 C         142.5842  138.6723  170.2443 C.3     1  UNL1        0.1816
     32 S         141.9901  139.5595  169.1907 S.O2    1  UNL1        0.0105
     33 O         140.9103  139.9717  170.1468 O.2     1  UNL1       -0.1686
     34 O         143.0699  139.1472  168.2346 O.2     1  UNL1       -0.1686
@<TRIPOS>BOND
     1    31    32    1
     2    32    33    2
     3    32    34    2
     4    32     1    1
     5     1     2   ar
     6     2     3   ar
     7     3     4   ar
     8     4    24    1
     9    24    25   ar
    10    25    26   ar
    11    26    27   ar
    12    27    28   ar
    13    28    29    1
    14    28    30   ar
    15     4     5   ar
    16     5     7    1
    17     7     8    2
    18     7     9   am
    19     9    10    1
    20    10    11    1
    21    11    12   ar
    22    12    13   ar
    23    13    17    1
    24    17    18   ar
    25    18    19   ar
    26    19    20   ar
    27    20    21   ar
    28    21    22    1
    29    21    23   ar
    30    13    14   ar
    31    14    15   ar
    32    15    16    1
    33     5     6   ar
    34     6     1   ar
    35    30    24   ar
    36    16     9    1
    37    15    11   ar
    38    23    17   ar
@<TRIPOS>MOLECULE
*****
 34 38 0 0 0
SMALL
GASTEIGER

@<TRIPOS>ATOM
      1 C         139.1423  139.2010  166.2073 C.ar    1  UNL1        0.1059
      2 C         139.3649  140.3494  167.1463 C.ar    1  UNL1        0.0183
      3 C         140.3174  141.4474  166.7758 C.ar    1  UNL1        0.0015
      4 C         141.0472  141.3969  165.4662 C.ar    1  UNL1        0.0045
      5 C         140.8246  140.2486  164.5272 C.ar    1  UNL1        0.0549
      6 C         139.8721  139.1506  164.8978 C.ar    1  UNL1        0.0229
      7 C         141.5545  140.1982  163.2178 C.2     1  UNL1        0.2496
      8 O         142.8869  139.5151  163.1276 O.2     1  UNL1       -0.2699
      9 N         140.9520  140.8309  161.9985 N.am    1  UNL1       -0.2661
     10 C         141.5610  140.8603  160.6280 C.3     1  UNL1        0.1236
     11 C         140.6200  141.5929  159.7182 C.ar    1  UNL1        0.0338
     12 C         140.4148  142.0638  158.3089 C.ar    1  UNL1        0.0991
     13 N         139.0974  142.7783  158.2461 N.ar    1  UNL1       -0.2271
     14 N         138.4883  142.7489  159.6165 N.ar    1  UNL1       -0.1680
     15 C         139.4294  142.0163  160.5264 C.ar    1  UNL1        0.0981
     16 C         139.6345  141.5454  161.9357 C.3     1  UNL1        0.1414
     17 C         138.4949  143.4110  157.0268 C.ar    1  UNL1        0.1042
     18 C         137.2821  142.8023  156.3876 C.ar    1  UNL1        0.1181
     19 N         136.6795  143.4350  155.1683 N.ar    1  UNL1       -0.2384
     20 C         137.2898  144.6764  154.5883 C.ar    1  UNL1        0.1285
     21 C         138.5027  145.2851  155.2275 C.ar    1  UNL1        0.1607
     22 F         139.1129  146.5265  154.6473 F       1  UNL1       -0.2025
     23 C         139.1052  144.6524  156.4467 C.ar    1  UNL1        0.0520
     24 C         141.9997  142.4949  165.0958 C.ar    1  UNL1        0.0024
     25 C         143.4556  142.3709  165.4347 C.ar    1  UNL1        0.0001
     26 C         144.4081  143.4689  165.0643 C.ar    1  UNL1        0.0023
     27 C         143.9047  144.6908  164.3549 C.ar    1  UNL1        0.0296
     28 C         142.4487  144.8149  164.0159 C.ar    1  UNL1        0.1401
     29 F         141.9453  146.0368  163.3065 F       1  UNL1       -0.2042
     30 C         141.4963  143.7169  164.3864 C.ar    1  UNL1        0.0296
     31 C         137.2373  137.0051  166.9482 C.3     1  UNL1        0.1816
     32 S         138.1898  138.1031  166.5777 S.O2    1  UNL1        0.0105
     33 O         138.5300  137.3797  165.3085 O.2     1  UNL1       -0.1686
     34 O         137.8496  138.8264  167.8470 O.2     1  UNL1       -0.1686
@<TRIPOS>BOND
     1    31    32    1
     2    32    33    2
     3    32    34    2
     4    32     1    1
     5     1     2   ar
     6     2     3   ar
     7     3     4   ar
     8     4    24    1
     9    24    25   ar
    10    25    26   ar
    11    26    27   ar
    12    27    28   ar
    13    28    29    1
    14    28    30   ar
    15     4     5   ar
    16     5     7    1
    17     7     8    2
    18     7     9   am
    19     9    10    1
    20    10    11    1
    21    11    12   ar
    22    12    13   ar
    23    13    17    1
    24    17    18   ar
    25    18    19   ar
    26    19    20   ar
    27    20    21   ar
    28    21    22    1
    29    21    23   ar
    30    13    14   ar
    31    14    15   ar
    32    15    16    1
    33     5     6   ar
    34     6     1   ar
    35    30    24   ar
    36    16     9    1
    37    15    11   ar
    38    23    17   ar
@<TRIPOS>MOLECULE
*****
 34 38 0 0 0
SMALL
GASTEIGER

@<TRIPOS>ATOM
      1 C         142.0399  141.3977  168.1005 C.ar    1  UNL1        0.1059
      2 C         140.6847  142.0404  168.1166 C.ar    1  UNL1        0.0183
      3 C         140.1921  142.7824  166.9097 C.ar    1  UNL1        0.0015
      4 C         141.0548  142.8816  165.6865 C.ar    1  UNL1        0.0045
      5 C         142.4100  142.2389  165.6704 C.ar    1  UNL1        0.0549
      6 C         142.9026  141.4969  166.8774 C.ar    1  UNL1        0.0229
      7 C         143.2726  142.3382  164.4472 C.2     1  UNL1        0.2496
      8 O         144.4401  143.2798  164.4273 O.2     1  UNL1       -0.2699
      9 N         142.9676  141.4960  163.2441 N.am    1  UNL1       -0.2661
     10 C         143.7366  141.4871  161.9562 C.3     1  UNL1        0.1236
     11 C         143.0843  140.5004  161.0336 C.ar    1  UNL1        0.0338
     12 C         143.1564  139.8851  159.6676 C.ar    1  UNL1        0.0991
     13 N         142.0289  138.9039  159.5411 N.ar    1  UNL1       -0.2271
     14 N         141.2599  138.9128  160.8289 N.ar    1  UNL1       -0.1680
     15 C         141.9122  139.8996  161.7515 C.ar    1  UNL1        0.0981
     16 C         141.8401  140.5149  163.1175 C.3     1  UNL1        0.1414
     17 C         141.7240  138.0617  158.3379 C.ar    1  UNL1        0.1042
     18 C         142.7678  137.1368  157.7857 C.ar    1  UNL1        0.1181
     19 N         142.4628  136.2946  156.5825 N.ar    1  UNL1       -0.2384
     20 C         141.1140  136.3773  155.9315 C.ar    1  UNL1        0.1285
     21 C         140.0702  137.3022  156.4837 C.ar    1  UNL1        0.1607
     22 F         138.7213  137.3849  155.8326 F       1  UNL1       -0.2025
     23 C         140.3751  138.1444  157.6869 C.ar    1  UNL1        0.0520
     24 C         140.5621  143.6236  164.4796 C.ar    1  UNL1        0.0024
     25 C         141.2681  144.8658  164.0230 C.ar    1  UNL1        0.0001
     26 C         140.7755  145.6078  162.8160 C.ar    1  UNL1        0.0023
     27 C         139.5768  145.1077  162.0657 C.ar    1  UNL1        0.0296
     28 C         138.8708  143.8655  162.5223 C.ar    1  UNL1        0.1401
     29 F         137.6722  143.3653  161.7719 F       1  UNL1       -0.2042
     30 C         139.3635  143.1235  163.7292 C.ar    1  UNL1        0.0296
     31 C         143.0252  139.9137  170.5144 C.3     1  UNL1        0.1816
     32 S         142.5326  140.6557  169.3074 S.O2    1  UNL1        0.0105
     33 O         142.9743  139.5220  168.4301 O.2     1  UNL1       -0.1686
     34 O         142.0908  141.7893  170.1847 O.2     1  UNL1       -0.1686
@<TRIPOS>BOND
     1    31    32    1
     2    32    33    2
     3    32    34    2
     4    32     1    1
     5     1     2   ar
     6     2     3   ar
     7     3     4   ar
     8     4    24    1
     9    24    25   ar
    10    25    26   ar
    11    26    27   ar
    12    27    28   ar
    13    28    29    1
    14    28    30   ar
    15     4     5   ar
    16     5     7    1
    17     7     8    2
    18     7     9   am
    19     9    10    1
    20    10    11    1
    21    11    12   ar
    22    12    13   ar
    23    13    17    1
    24    17    18   ar
    25    18    19   ar
    26    19    20   ar
    27    20    21   ar
    28    21    22    1
    29    21    23   ar
    30    13    14   ar
    31    14    15   ar
    32    15    16    1
    33     5     6   ar
    34     6     1   ar
    35    30    24   ar
    36    16     9    1
    37    15    11   ar
    38    23    17   ar
@<TRIPOS>MOLECULE
*****
 34 38 0 0 0
SMALL
GASTEIGER

@<TRIPOS>ATOM
      1 C         140.3538  140.7187  168.2155 C.ar    1  UNL1        0.1059
      2 C         141.3318  141.8427  168.3894 C.ar    1  UNL1        0.0183
      3 C         142.3567  142.1160  167.3288 C.ar    1  UNL1        0.0015
      4 C         142.4035  141.2652  166.0942 C.ar    1  UNL1        0.0045
      5 C         141.4256  140.1412  165.9203 C.ar    1  UNL1        0.0549
      6 C         140.4007  139.8680  166.9811 C.ar    1  UNL1        0.0229
      7 C         141.4725  139.2904  164.6858 C.2     1  UNL1        0.2496
      8 O         142.1296  137.9427  164.7283 O.2     1  UNL1       -0.2699
      9 N         140.8623  139.7875  163.4089 N.am    1  UNL1       -0.2661
     10 C         140.8325  139.0527  162.1015 C.3     1  UNL1        0.1236
     11 C         140.1265  139.9177  161.0997 C.ar    1  UNL1        0.0338
     12 C         139.6718  139.9982  159.6726 C.ar    1  UNL1        0.0991
     13 N         138.9843  141.3172  159.4789 N.ar    1  UNL1       -0.2271
     14 N         139.0141  142.0520  160.7863 N.ar    1  UNL1       -0.1680
     15 C         139.7201  141.1870  161.7881 C.ar    1  UNL1        0.0981
     16 C         140.1748  141.1065  163.2152 C.3     1  UNL1        0.1414
     17 C         138.3741  141.8143  158.2019 C.ar    1  UNL1        0.1042
     18 C         138.8629  143.0908  157.5842 C.ar    1  UNL1        0.1181
     19 N         138.2527  143.5878  156.3072 N.ar    1  UNL1       -0.2384
     20 C         137.1537  142.8083  155.6480 C.ar    1  UNL1        0.1285
     21 C         136.6649  141.5318  156.2657 C.ar    1  UNL1        0.1607
     22 F         135.5659  140.7523  155.6064 F       1  UNL1       -0.2025
     23 C         137.2751  141.0347  157.5427 C.ar    1  UNL1        0.0520
     24 C         143.4284  141.5384  165.0336 C.ar    1  UNL1        0.0024
     25 C         144.4714  140.5084  164.7154 C.ar    1  UNL1        0.0001
     26 C         145.4963  140.7817  163.6547 C.ar    1  UNL1        0.0023
     27 C         145.4782  142.0850  162.9123 C.ar    1  UNL1        0.0296
     28 C         144.4352  143.1149  163.2305 C.ar    1  UNL1        0.1401
     29 F         144.4171  144.4182  162.4881 F       1  UNL1       -0.2042
     30 C         143.4103  142.8417  164.2912 C.ar    1  UNL1        0.0296
     31 C         138.3041  140.1722  170.3368 C.3     1  UNL1        0.1816
     32 S         139.3290  140.4455  169.2762 S.O2    1  UNL1        0.0105
     33 O         138.7062  139.3960  168.4040 O.2     1  UNL1       -0.1686
     34 O         139.9518  141.4949  170.1484 O.2     1  UNL1       -0.1686
@<TRIPOS>BOND
     1    31    32    1
     2    32    33    2
     3    32    34    2
     4    32     1    1
     5     1     2   ar
     6     2     3   ar
     7     3     4   ar
     8     4    24    1
     9    24    25   ar
    10    25    26   ar
    11    26    27   ar
    12    27    28   ar
    13    28    29    1
    14    28    30   ar
    15     4     5   ar
    16     5     7    1
    17     7     8    2
    18     7     9   am
    19     9    10    1
    20    10    11    1
    21    11    12   ar
    22    12    13   ar
    23    13    17    1
    24    17    18   ar
    25    18    19   ar
    26    19    20   ar
    27    20    21   ar
    28    21    22    1
    29    21    23   ar
    30    13    14   ar
    31    14    15   ar
    32    15    16    1
    33     5     6   ar
    34     6     1   ar
    35    30    24   ar
    36    16     9    1
    37    15    11   ar
    38    23    17   ar
@<TRIPOS>MOLECULE
*****
 34 38 0 0 0
SMALL
GASTEIGER

@<TRIPOS>ATOM
      1 C         141.4878  141.9903  168.1595 C.ar    1  UNL1        0.1059
      2 C         140.8331  140.6407  168.1647 C.ar    1  UNL1        0.0183
      3 C         140.0755  140.1699  166.9587 C.ar    1  UNL1        0.0015
      4 C         139.9726  141.0488  165.7475 C.ar    1  UNL1        0.0045
      5 C         140.6273  142.3984  165.7422 C.ar    1  UNL1        0.0549
      6 C         141.3849  142.8691  166.9483 C.ar    1  UNL1        0.0229
      7 C         140.5243  143.2772  164.5310 C.2     1  UNL1        0.2496
      8 O         139.6268  144.4790  164.5504 O.2     1  UNL1       -0.2699
      9 N         141.3188  142.9543  163.3004 N.am    1  UNL1       -0.2661
     10 C         141.3186  143.7363  162.0203 C.3     1  UNL1        0.1236
     11 C         142.2527  143.0579  161.0626 C.ar    1  UNL1        0.0338
     12 C         142.8299  143.1219  159.6796 C.ar    1  UNL1        0.0991
     13 N         143.7642  141.9603  159.5130 N.ar    1  UNL1       -0.2271
     14 N         143.7644  141.1783  160.7930 N.ar    1  UNL1       -0.1680
     15 C         142.8303  141.8567  161.7508 C.ar    1  UNL1        0.0981
     16 C         142.2531  141.7927  163.1338 C.3     1  UNL1        0.1414
     17 C         144.5587  141.6373  158.2823 C.ar    1  UNL1        0.1042
     18 C         144.3186  140.3499  157.5510 C.ar    1  UNL1        0.1181
     19 N         145.1131  140.0269  156.3204 N.ar    1  UNL1       -0.2384
     20 C         146.1477  140.9915  155.8211 C.ar    1  UNL1        0.1285
     21 C         146.3878  142.2789  156.5524 C.ar    1  UNL1        0.1607
     22 F         147.4224  143.2434  156.0530 F       1  UNL1       -0.2025
     23 C         145.5933  142.6019  157.7830 C.ar    1  UNL1        0.0520
     24 C         139.2150  140.5781  164.5415 C.ar    1  UNL1        0.0024
     25 C         138.0559  141.3776  164.0246 C.ar    1  UNL1        0.0001
     26 C         137.2983  140.9069  162.8186 C.ar    1  UNL1        0.0023
     27 C         137.6998  139.6365  162.1295 C.ar    1  UNL1        0.0296
     28 C         138.8589  138.8369  162.6463 C.ar    1  UNL1        0.1401
     29 F         139.2604  137.5665  161.9571 F       1  UNL1       -0.2042
     30 C         139.6165  139.3077  163.8523 C.ar    1  UNL1        0.0296
     31 C         143.0030  142.9318  170.5714 C.3     1  UNL1        0.1816
     32 S         142.2454  142.4610  169.3655 S.O2    1  UNL1        0.0105
     33 O         141.0161  142.2843  170.2067 O.2     1  UNL1       -0.1686
     34 O         143.4746  142.6378  168.5242 O.2     1  UNL1       -0.1686
@<TRIPOS>BOND
     1    31    32    1
     2    32    33    2
     3    32    34    2
     4    32     1    1
     5     1     2   ar
     6     2     3   ar
     7     3     4   ar
     8     4    24    1
     9    24    25   ar
    10    25    26   ar
    11    26    27   ar
    12    27    28   ar
    13    28    29    1
    14    28    30   ar
    15     4     5   ar
    16     5     7    1
    17     7     8    2
    18     7     9   am
    19     9    10    1
    20    10    11    1
    21    11    12   ar
    22    12    13   ar
    23    13    17    1
    24    17    18   ar
    25    18    19   ar
    26    19    20   ar
    27    20    21   ar
    28    21    22    1
    29    21    23   ar
    30    13    14   ar
    31    14    15   ar
    32    15    16    1
    33     5     6   ar
    34     6     1   ar
    35    30    24   ar
    36    16     9    1
    37    15    11   ar
    38    23    17   ar
@<TRIPOS>MOLECULE
*****
 34 38 0 0 0
SMALL
GASTEIGER

@<TRIPOS>ATOM
      1 C         142.3274  141.5327  167.3673 C.ar    1  UNL1        0.1059
      2 C         141.6733  140.1888  167.2404 C.ar    1  UNL1        0.0183
      3 C         141.7541  139.4346  165.9463 C.ar    1  UNL1        0.0015
      4 C         142.4891  140.0243  164.7792 C.ar    1  UNL1        0.0045
      5 C         143.1433  141.3682  164.9062 C.ar    1  UNL1        0.0549
      6 C         143.0624  142.1224  166.2003 C.ar    1  UNL1        0.0229
      7 C         143.8783  141.9578  163.7391 C.2     1  UNL1        0.2496
      8 O         145.3768  142.0226  163.7516 O.2     1  UNL1       -0.2699
      9 N         143.1147  142.4826  162.5595 N.am    1  UNL1       -0.2661
     10 C         143.7091  143.0968  161.3268 C.3     1  UNL1        0.1236
     11 C         142.5843  143.4792  160.4109 C.ar    1  UNL1        0.0338
     12 C         142.2566  144.0951  159.0830 C.ar    1  UNL1        0.0991
     13 N         140.7645  144.0978  158.9290 N.ar    1  UNL1       -0.2271
     14 N         140.1701  143.4837  160.1617 N.ar    1  UNL1       -0.1680
     15 C         141.2949  143.1013  161.0776 C.ar    1  UNL1        0.0981
     16 C         141.6226  142.4854  162.4055 C.3     1  UNL1        0.1414
     17 C         140.0009  144.6227  157.7494 C.ar    1  UNL1        0.1042
     18 C         139.1037  143.7079  156.9695 C.ar    1  UNL1        0.1181
     19 N         138.3401  144.2328  155.7899 N.ar    1  UNL1       -0.2384
     20 C         138.4738  145.6723  155.3902 C.ar    1  UNL1        0.1285
     21 C         139.3710  146.5870  156.1701 C.ar    1  UNL1        0.1607
     22 F         139.5046  148.0267  155.7702 F       1  UNL1       -0.2025
     23 C         140.1346  146.0622  157.3497 C.ar    1  UNL1        0.0520
     24 C         142.5700  139.2701  163.4851 C.ar    1  UNL1        0.0024
     25 C         143.8998  138.8061  162.9693 C.ar    1  UNL1        0.0001
     26 C         143.9807  138.0518  161.6752 C.ar    1  UNL1        0.0023
     27 C         142.7316  137.7616  160.8970 C.ar    1  UNL1        0.0296
     28 C         141.4018  138.2257  161.4128 C.ar    1  UNL1        0.1401
     29 F         140.1527  137.9355  160.6346 F       1  UNL1       -0.2042
     30 C         141.3209  138.9799  162.7069 C.ar    1  UNL1        0.0296
     31 C         142.1657  143.0412  169.9555 C.3     1  UNL1        0.1816
     32 S         142.2466  142.2869  168.6614 S.O2    1  UNL1        0.0105
     33 O         140.7957  141.9255  168.7815 O.2     1  UNL1       -0.1686
     34 O         143.6974  142.6484  168.5414 O.2     1  UNL1       -0.1686
@<TRIPOS>BOND
     1    31    32    1
     2    32    33    2
     3    32    34    2
     4    32     1    1
     5     1     2   ar
     6     2     3   ar
     7     3     4   ar
     8     4    24    1
     9    24    25   ar
    10    25    26   ar
    11    26    27   ar
    12    27    28   ar
    13    28    29    1
    14    28    30   ar
    15     4     5   ar
    16     5     7    1
    17     7     8    2
    18     7     9   am
    19     9    10    1
    20    10    11    1
    21    11    12   ar
    22    12    13   ar
    23    13    17    1
    24    17    18   ar
    25    18    19   ar
    26    19    20   ar
    27    20    21   ar
    28    21    22    1
    29    21    23   ar
    30    13    14   ar
    31    14    15   ar
    32    15    16    1
    33     5     6   ar
    34     6     1   ar
    35    30    24   ar
    36    16     9    1
    37    15    11   ar
    38    23    17   ar
@<TRIPOS>MOLECULE
*****
 34 38 0 0 0
SMALL
GASTEIGER

@<TRIPOS>ATOM
      1 C         139.2209  140.0449  166.3543 C.ar    1  UNL1        0.1059
      2 C         140.4903  140.4503  167.0428 C.ar    1  UNL1        0.0183
      3 C         141.4657  141.3528  166.3470 C.ar    1  UNL1        0.0015
      4 C         141.1715  141.8498  164.9625 C.ar    1  UNL1        0.0045
      5 C         139.9021  141.4443  164.2740 C.ar    1  UNL1        0.0549
      6 C         138.9267  140.5418  164.9699 C.ar    1  UNL1        0.0229
      7 C         139.6080  141.9413  162.8896 C.2     1  UNL1        0.2496
      8 O         138.9274  143.2640  162.6964 O.2     1  UNL1       -0.2699
      9 N         139.9945  141.1157  161.6985 N.am    1  UNL1       -0.2661
     10 C         139.7665  141.4803  160.2614 C.3     1  UNL1        0.1236
     11 C         140.3080  140.3703  159.4100 C.ar    1  UNL1        0.0338
     12 C         140.5017  139.9097  157.9958 C.ar    1  UNL1        0.0991
     13 N         141.1842  138.5744  158.0325 N.ar    1  UNL1       -0.2271
     14 N         141.4122  138.2098  159.4696 N.ar    1  UNL1       -0.1680
     15 C         140.8707  139.3198  160.3210 C.ar    1  UNL1        0.0981
     16 C         140.6769  139.7804  161.7353 C.3     1  UNL1        0.1414
     17 C         141.5707  137.7488  156.8414 C.ar    1  UNL1        0.1042
     18 C         140.5192  137.2840  155.8779 C.ar    1  UNL1        0.1181
     19 N         140.9057  136.4584  154.6867 N.ar    1  UNL1       -0.2384
     20 C         142.3437  136.0975  154.4591 C.ar    1  UNL1        0.1285
     21 C         143.3952  136.5622  155.4226 C.ar    1  UNL1        0.1607
     22 F         144.8333  136.2012  155.1949 F       1  UNL1       -0.2025
     23 C         143.0087  137.3879  156.6138 C.ar    1  UNL1        0.0520
     24 C         142.1469  142.7522  164.2667 C.ar    1  UNL1        0.0024
     25 C         141.9860  144.2409  164.3552 C.ar    1  UNL1        0.0001
     26 C         142.9614  145.1434  163.6594 C.ar    1  UNL1        0.0023
     27 C         144.0977  144.5572  162.8750 C.ar    1  UNL1        0.0296
     28 C         144.2585  143.0685  162.7865 C.ar    1  UNL1        0.1401
     29 F         145.3948  142.4823  162.0021 F       1  UNL1       -0.2042
     30 C         143.2832  142.1660  163.4823 C.ar    1  UNL1        0.0296
     31 C         137.2701  138.2399  167.7459 C.3     1  UNL1        0.1816
     32 S         138.2455  139.1424  167.0501 S.O2    1  UNL1        0.0105
     33 O         138.8338  139.5280  168.3749 O.2     1  UNL1       -0.1686
     34 O         137.6571  138.7568  165.7253 O.2     1  UNL1       -0.1686
@<TRIPOS>BOND
     1    31    32    1
     2    32    33    2
     3    32    34    2
     4    32     1    1
     5     1     2   ar
     6     2     3   ar
     7     3     4   ar
     8     4    24    1
     9    24    25   ar
    10    25    26   ar
    11    26    27   ar
    12    27    28   ar
    13    28    29    1
    14    28    30   ar
    15     4     5   ar
    16     5     7    1
    17     7     8    2
    18     7     9   am
    19     9    10    1
    20    10    11    1
    21    11    12   ar
    22    12    13   ar
    23    13    17    1
    24    17    18   ar
    25    18    19   ar
    26    19    20   ar
    27    20    21   ar
    28    21    22    1
    29    21    23   ar
    30    13    14   ar
    31    14    15   ar
    32    15    16    1
    33     5     6   ar
    34     6     1   ar
    35    30    24   ar
    36    16     9    1
    37    15    11   ar
    38    23    17   ar
