@<TRIPOS>MOLECULE
*****
 26 30 0 0 0
SMALL
GASTEIGER

@<TRIPOS>ATOM
      1 N         143.2723  141.7428  164.6814 N.pl3   1  UNL1       -0.3133
      2 C         142.7158  141.7081  166.0740 C.2     1  UNL1        0.2770
      3 N         141.4753  140.9863  166.5100 N.2     1  UNL1       -0.2204
      4 C         141.2950  141.2212  167.9805 C.3     1  UNL1        0.1537
      5 C         142.4241  142.0882  168.4532 C.3     1  UNL1        0.2350
      6 O         143.3021  142.3891  167.2750 O.2     1  UNL1       -0.4478
      7 C         140.2302  140.3626  167.3647 C.ar    1  UNL1        0.0355
      8 C         140.2794  140.0416  165.9003 C.ar    1  UNL1        0.0007
      9 C         139.2146  139.1830  165.2845 C.ar    1  UNL1        0.0015
     10 C         138.1008  138.6453  166.1332 C.ar    1  UNL1        0.0031
     11 C         138.0517  138.9663  167.5977 C.ar    1  UNL1        0.0366
     12 C         139.1164  139.8249  168.2134 C.ar    1  UNL1        0.1364
     13 O         139.0673  140.1459  169.6779 O.3     1  UNL1       -0.4756
     14 C         140.1321  141.0045  170.2936 C.3     1  UNL1        0.2074
     15 C         141.2459  141.5421  169.4449 C.3     1  UNL1        0.0666
     16 C         142.5037  142.3483  169.3104 C.3     1  UNL1        0.0061
     17 C         141.8323  142.2232  170.6459 C.3     1  UNL1        0.0061
     18 H         142.8131  141.2614  163.9557 H       1  UNL1        0.1466
     19 H         144.0966  142.2470  164.4932 H       1  UNL1        0.1466
     20 C         139.2637  138.8621  163.8201 C.ar    1  UNL1        0.0200
     21 C         140.3255  137.9457  163.2883 C.ar    1  UNL1        0.0989
     22 N         140.3747  137.6248  161.8239 N.ar    1  UNL1       -0.2414
     23 C         139.3619  138.2202  160.8912 C.ar    1  UNL1        0.1102
     24 C         138.3001  139.1366  161.4230 C.ar    1  UNL1        0.0768
     25 CL        137.2873  139.7320  160.4904 Cl      1  UNL1       -0.0806
     26 C         138.2510  139.4575  162.8875 C.ar    1  UNL1        0.0145
@<TRIPOS>BOND
     1     1     2    1
     2     2     3    2
     3     3     4    1
     4     4     5    1
     5     5     6    1
     6     4     7    1
     7     7     8   ar
     8     8     9   ar
     9     9    20    1
    10    20    21   ar
    11    21    22   ar
    12    22    23   ar
    13    23    24   ar
    14    24    25    1
    15    24    26   ar
    16     9    10   ar
    17    10    11   ar
    18    11    12   ar
    19    12    13    1
    20    13    14    1
    21    14    15    1
    22    15    16    1
    23    16    17    1
    24     6     2    1
    25    12     7   ar
    26    17    15    1
    27    15     4    1
    28    26    20   ar
    29     1    18    1
    30     1    19    1
@<TRIPOS>MOLECULE
*****
 26 30 0 0 0
SMALL
GASTEIGER

@<TRIPOS>ATOM
      1 N         143.7397  141.7426  165.6497 N.pl3   1  UNL1       -0.3133
      2 C         142.9497  140.8388  164.7500 C.2     1  UNL1        0.2770
      3 N         141.6573  140.1608  165.0960 N.2     1  UNL1       -0.2204
      4 C         141.2225  139.3573  163.9062 C.3     1  UNL1        0.1537
      5 C         142.2462  139.5390  162.8250 C.3     1  UNL1        0.2350
      6 O         143.3136  140.4545  163.3465 O.2     1  UNL1       -0.4478
      7 C         140.2869  139.2712  165.0756 C.ar    1  UNL1        0.0355
      8 C         140.5921  140.0229  166.3372 C.ar    1  UNL1        0.0007
      9 C         139.6566  139.9368  167.5067 C.ar    1  UNL1        0.0015
     10 C         138.4159  139.0989  167.4144 C.ar    1  UNL1        0.0031
     11 C         138.1107  138.3471  166.1527 C.ar    1  UNL1        0.0366
     12 C         139.0462  138.4333  164.9834 C.ar    1  UNL1        0.1364
     13 O         138.7410  137.6815  163.7217 O.3     1  UNL1       -0.4756
     14 C         139.6765  137.7677  162.5524 C.3     1  UNL1        0.2074
     15 C         140.9173  138.6056  162.6446 C.3     1  UNL1        0.0666
     16 C         142.1737  139.1391  162.0228 C.3     1  UNL1        0.0061
     17 C         141.2812  138.2213  161.2411 C.3     1  UNL1        0.0061
     18 H         143.4170  141.9360  166.5595 H       1  UNL1        0.1466
     19 H         144.5807  142.1424  165.3303 H       1  UNL1        0.1466
     20 C         139.9618  140.6885  168.7683 C.ar    1  UNL1        0.0200
     21 C         140.1696  139.9437  170.0535 C.ar    1  UNL1        0.0989
     22 N         140.4748  140.6954  171.3151 N.ar    1  UNL1       -0.2414
     23 C         140.5722  142.1921  171.2915 C.ar    1  UNL1        0.1102
     24 C         140.3644  142.9370  170.0062 C.ar    1  UNL1        0.0768
     25 CL        140.4618  144.4336  169.9825 Cl      1  UNL1       -0.0806
     26 C         140.0592  142.1852  168.7446 C.ar    1  UNL1        0.0145
@<TRIPOS>BOND
     1     1     2    1
     2     2     3    2
     3     3     4    1
     4     4     5    1
     5     5     6    1
     6     4     7    1
     7     7     8   ar
     8     8     9   ar
     9     9    20    1
    10    20    21   ar
    11    21    22   ar
    12    22    23   ar
    13    23    24   ar
    14    24    25    1
    15    24    26   ar
    16     9    10   ar
    17    10    11   ar
    18    11    12   ar
    19    12    13    1
    20    13    14    1
    21    14    15    1
    22    15    16    1
    23    16    17    1
    24     6     2    1
    25    12     7   ar
    26    17    15    1
    27    15     4    1
    28    26    20   ar
    29     1    18    1
    30     1    19    1
@<TRIPOS>MOLECULE
*****
 26 30 0 0 0
SMALL
GASTEIGER

@<TRIPOS>ATOM
      1 N         143.7357  141.8166  165.4825 N.pl3   1  UNL1       -0.3133
      2 C         142.7860  141.6863  166.6364 C.2     1  UNL1        0.2770
      3 N         141.5485  140.8394  166.6684 N.2     1  UNL1       -0.2204
      4 C         140.9049  141.0098  168.0126 C.3     1  UNL1        0.1537
      5 C         141.7447  141.9621  168.8112 C.3     1  UNL1        0.2350
      6 O         142.9073  142.3802  167.9607 O.2     1  UNL1       -0.4478
      7 C         140.1689  140.0763  167.0976 C.ar    1  UNL1        0.0355
      8 C         140.6949  139.8080  165.7187 C.ar    1  UNL1        0.0007
      9 C         139.9589  138.8745  164.8038 C.ar    1  UNL1        0.0015
     10 C         138.6970  138.2094  165.2678 C.ar    1  UNL1        0.0031
     11 C         138.1711  138.4778  166.6468 C.ar    1  UNL1        0.0366
     12 C         138.9071  139.4112  167.5616 C.ar    1  UNL1        0.1364
     13 O         138.3812  139.6796  168.9406 O.3     1  UNL1       -0.4756
     14 C         139.1171  140.6130  169.8555 C.3     1  UNL1        0.2074
     15 C         140.3790  141.2781  169.3915 C.3     1  UNL1        0.0666
     16 C         141.5324  142.2010  169.6518 C.3     1  UNL1        0.0061
     17 C         140.5003  141.9720  170.7158 C.3     1  UNL1        0.0061
     18 H         143.5700  141.3181  164.6499 H       1  UNL1        0.1466
     19 H         144.5247  142.4006  165.5579 H       1  UNL1        0.1466
     20 C         140.4848  138.6062  163.4249 C.ar    1  UNL1        0.0200
     21 C         139.5444  138.5733  162.2568 C.ar    1  UNL1        0.0989
     22 N         140.0703  138.3050  160.8779 N.ar    1  UNL1       -0.2414
     23 C         141.5367  138.0695  160.6671 C.ar    1  UNL1        0.1102
     24 C         142.4771  138.1024  161.8352 C.ar    1  UNL1        0.0768
     25 CL        143.9434  137.8670  161.6245 Cl      1  UNL1       -0.0806
     26 C         141.9511  138.3708  163.2142 C.ar    1  UNL1        0.0145
@<TRIPOS>BOND
     1     1     2    1
     2     2     3    2
     3     3     4    1
     4     4     5    1
     5     5     6    1
     6     4     7    1
     7     7     8   ar
     8     8     9   ar
     9     9    20    1
    10    20    21   ar
    11    21    22   ar
    12    22    23   ar
    13    23    24   ar
    14    24    25    1
    15    24    26   ar
    16     9    10   ar
    17    10    11   ar
    18    11    12   ar
    19    12    13    1
    20    13    14    1
    21    14    15    1
    22    15    16    1
    23    16    17    1
    24     6     2    1
    25    12     7   ar
    26    17    15    1
    27    15     4    1
    28    26    20   ar
    29     1    18    1
    30     1    19    1
@<TRIPOS>MOLECULE
*****
 26 30 0 0 0
SMALL
GASTEIGER

@<TRIPOS>ATOM
      1 N         139.1108  137.2822  165.2279 N.pl3   1  UNL1       -0.3133
      2 C         138.8321  138.2369  164.1049 C.2     1  UNL1        0.2770
      3 N         138.9883  139.7278  164.1559 N.2     1  UNL1       -0.2204
      4 C         138.6010  140.2805  162.8162 C.3     1  UNL1        0.1537
      5 C         138.2053  139.1311  161.9374 C.3     1  UNL1        0.2350
      6 O         138.3481  137.8681  162.7338 O.2     1  UNL1       -0.4478
      7 C         139.0236  141.3238  163.8077 C.ar    1  UNL1        0.0355
      8 C         139.4392  140.9192  165.1910 C.ar    1  UNL1        0.0007
      9 C         139.8618  141.9626  166.1825 C.ar    1  UNL1        0.0015
     10 C         139.8689  143.4104  165.7905 C.ar    1  UNL1        0.0031
     11 C         139.4533  143.8150  164.4071 C.ar    1  UNL1        0.0366
     12 C         139.0307  142.7717  163.4157 C.ar    1  UNL1        0.1364
     13 O         138.6151  143.1762  162.0323 O.3     1  UNL1       -0.4756
     14 C         138.1925  142.1329  161.0410 C.3     1  UNL1        0.2074
     15 C         138.1854  140.6851  161.4329 C.3     1  UNL1        0.0666
     16 C         137.9373  139.2468  161.0868 C.3     1  UNL1        0.0061
     17 C         137.7015  140.3163  160.0618 C.3     1  UNL1        0.0061
     18 H         139.4272  137.6223  166.0959 H       1  UNL1        0.1466
     19 H         138.9774  136.3157  165.0968 H       1  UNL1        0.1466
     20 C         140.2774  141.5580  167.5658 C.ar    1  UNL1        0.0200
     21 C         139.7809  140.2693  168.1513 C.ar    1  UNL1        0.0989
     22 N         140.1965  139.8647  169.5346 N.ar    1  UNL1       -0.2414
     23 C         141.1085  140.7489  170.3325 C.ar    1  UNL1        0.1102
     24 C         141.6049  142.0376  169.7470 C.ar    1  UNL1        0.0768
     25 CL        142.5169  142.9217  170.5448 Cl      1  UNL1       -0.0806
     26 C         141.1893  142.4421  168.3636 C.ar    1  UNL1        0.0145
@<TRIPOS>BOND
     1     1     2    1
     2     2     3    2
     3     3     4    1
     4     4     5    1
     5     5     6    1
     6     4     7    1
     7     7     8   ar
     8     8     9   ar
     9     9    20    1
    10    20    21   ar
    11    21    22   ar
    12    22    23   ar
    13    23    24   ar
    14    24    25    1
    15    24    26   ar
    16     9    10   ar
    17    10    11   ar
    18    11    12   ar
    19    12    13    1
    20    13    14    1
    21    14    15    1
    22    15    16    1
    23    16    17    1
    24     6     2    1
    25    12     7   ar
    26    17    15    1
    27    15     4    1
    28    26    20   ar
    29     1    18    1
    30     1    19    1
@<TRIPOS>MOLECULE
*****
 26 30 0 0 0
SMALL
GASTEIGER

@<TRIPOS>ATOM
      1 N         137.7803  143.5498  164.8199 N.pl3   1  UNL1       -0.3133
      2 C         137.9913  142.3206  163.9864 C.2     1  UNL1        0.2770
      3 N         138.9658  141.2171  164.2739 N.2     1  UNL1       -0.2204
      4 C         138.8416  140.1936  163.1843 C.3     1  UNL1        0.1537
      5 C         137.7904  140.6647  162.2235 C.3     1  UNL1        0.2350
      6 O         137.2649  141.9792  162.7192 O.2     1  UNL1       -0.4478
      7 C         139.8650  139.8537  164.2270 C.ar    1  UNL1        0.0355
      8 C         140.0997  140.7850  165.3791 C.ar    1  UNL1        0.0007
      9 C         141.1231  140.4450  166.4219 C.ar    1  UNL1        0.0015
     10 C         141.9117  139.1738  166.3124 C.ar    1  UNL1        0.0031
     11 C         141.6769  138.2424  165.1601 C.ar    1  UNL1        0.0366
     12 C         140.6535  138.5824  164.1175 C.ar    1  UNL1        0.1364
     13 O         140.4187  137.6511  162.9653 O.3     1  UNL1       -0.4756
     14 C         139.3953  137.9910  161.9226 C.3     1  UNL1        0.2074
     15 C         138.6068  139.2623  162.0321 C.3     1  UNL1        0.0666
     16 C         137.5607  140.1926  161.4934 C.3     1  UNL1        0.0061
     17 C         137.8804  138.9209  160.7650 C.3     1  UNL1        0.0061
     18 H         138.3085  143.6855  165.6395 H       1  UNL1        0.1466
     19 H         137.1136  144.2209  164.5472 H       1  UNL1        0.1466
     20 C         141.3579  141.3764  167.5740 C.ar    1  UNL1        0.0200
     21 C         140.2248  142.1925  168.1217 C.ar    1  UNL1        0.0989
     22 N         140.4596  143.1238  169.2738 N.ar    1  UNL1       -0.2414
     23 C         141.8275  143.2390  169.8784 C.ar    1  UNL1        0.1102
     24 C         142.9607  142.4229  169.3307 C.ar    1  UNL1        0.0768
     25 CL        144.3286  142.5381  169.9352 Cl      1  UNL1       -0.0806
     26 C         142.7258  141.4915  168.1785 C.ar    1  UNL1        0.0145
@<TRIPOS>BOND
     1     1     2    1
     2     2     3    2
     3     3     4    1
     4     4     5    1
     5     5     6    1
     6     4     7    1
     7     7     8   ar
     8     8     9   ar
     9     9    20    1
    10    20    21   ar
    11    21    22   ar
    12    22    23   ar
    13    23    24   ar
    14    24    25    1
    15    24    26   ar
    16     9    10   ar
    17    10    11   ar
    18    11    12   ar
    19    12    13    1
    20    13    14    1
    21    14    15    1
    22    15    16    1
    23    16    17    1
    24     6     2    1
    25    12     7   ar
    26    17    15    1
    27    15     4    1
    28    26    20   ar
    29     1    18    1
    30     1    19    1
@<TRIPOS>MOLECULE
*****
 26 30 0 0 0
SMALL
GASTEIGER

@<TRIPOS>ATOM
      1 N         138.4377  145.1144  165.7195 N.pl3   1  UNL1       -0.3133
      2 C         138.5123  144.1443  164.5778 C.2     1  UNL1        0.2770
      3 N         139.0270  142.7372  164.6489 N.2     1  UNL1       -0.2204
      4 C         138.9181  142.1342  163.2796 C.3     1  UNL1        0.1537
      5 C         138.3361  143.1687  162.3625 C.3     1  UNL1        0.2350
      6 O         138.0853  144.4110  163.1649 O.2     1  UNL1       -0.4478
      7 C         139.4891  141.2068  164.3111 C.ar    1  UNL1        0.0355
      8 C         139.6577  141.6722  165.7270 C.ar    1  UNL1        0.0007
      9 C         140.2287  140.7448  166.7585 C.ar    1  UNL1        0.0015
     10 C         140.6311  139.3519  166.3739 C.ar    1  UNL1        0.0031
     11 C         140.4625  138.8864  164.9579 C.ar    1  UNL1        0.0366
     12 C         139.8915  139.8139  163.9266 C.ar    1  UNL1        0.1364
     13 O         139.7229  139.3484  162.5105 O.3     1  UNL1       -0.4756
     14 C         139.1519  140.2758  161.4792 C.3     1  UNL1        0.2074
     15 C         138.7495  141.6687  161.8637 C.3     1  UNL1        0.0666
     16 C         138.1875  143.0083  161.4902 C.3     1  UNL1        0.0061
     17 C         138.3225  141.9354  160.4507 C.3     1  UNL1        0.0061
     18 H         138.7440  144.8448  166.6154 H       1  UNL1        0.1466
     19 H         138.0824  146.0208  165.5729 H       1  UNL1        0.1466
     20 C         140.3973  141.2103  168.1744 C.ar    1  UNL1        0.0200
     21 C         140.6259  140.2116  169.2700 C.ar    1  UNL1        0.0989
     22 N         140.7944  140.6771  170.6859 N.ar    1  UNL1       -0.2414
     23 C         140.7344  142.1413  171.0063 C.ar    1  UNL1        0.1102
     24 C         140.5058  143.1400  169.9107 C.ar    1  UNL1        0.0768
     25 CL        140.4457  144.6041  170.2309 Cl      1  UNL1       -0.0806
     26 C         140.3372  142.6744  168.4947 C.ar    1  UNL1        0.0145
@<TRIPOS>BOND
     1     1     2    1
     2     2     3    2
     3     3     4    1
     4     4     5    1
     5     5     6    1
     6     4     7    1
     7     7     8   ar
     8     8     9   ar
     9     9    20    1
    10    20    21   ar
    11    21    22   ar
    12    22    23   ar
    13    23    24   ar
    14    24    25    1
    15    24    26   ar
    16     9    10   ar
    17    10    11   ar
    18    11    12   ar
    19    12    13    1
    20    13    14    1
    21    14    15    1
    22    15    16    1
    23    16    17    1
    24     6     2    1
    25    12     7   ar
    26    17    15    1
    27    15     4    1
    28    26    20   ar
    29     1    18    1
    30     1    19    1
@<TRIPOS>MOLECULE
*****
 26 30 0 0 0
SMALL
GASTEIGER

@<TRIPOS>ATOM
      1 N         138.3440  145.0713  165.7945 N.pl3   1  UNL1       -0.3133
      2 C         139.2500  144.8401  164.6215 C.2     1  UNL1        0.2770
      3 N         140.4744  143.9739  164.6104 N.2     1  UNL1       -0.2204
      4 C         141.0716  144.0330  163.2356 C.3     1  UNL1        0.1537
      5 C         140.2162  144.9359  162.3971 C.3     1  UNL1        0.2350
      6 O         139.0903  145.4347  163.2536 O.2     1  UNL1       -0.4478
      7 C         141.8277  143.1593  164.1922 C.ar    1  UNL1        0.0355
      8 C         141.3481  143.0033  165.6049 C.ar    1  UNL1        0.0007
      9 C         142.1042  142.1295  166.5615 C.ar    1  UNL1        0.0015
     10 C         143.3398  141.4119  166.1054 C.ar    1  UNL1        0.0031
     11 C         143.8194  141.5679  164.6926 C.ar    1  UNL1        0.0366
     12 C         143.0634  142.4416  163.7361 C.ar    1  UNL1        0.1364
     13 O         143.5430  142.5977  162.3234 O.3     1  UNL1       -0.4756
     14 C         142.7869  143.4714  161.3669 C.3     1  UNL1        0.2074
     15 C         141.5512  144.1891  161.8230 C.3     1  UNL1        0.0666
     16 C         140.4013  145.1078  161.5341 C.3     1  UNL1        0.0061
     17 C         141.3916  144.7836  160.4551 C.3     1  UNL1        0.0061
     18 H         138.5330  144.6340  166.6561 H       1  UNL1        0.1466
     19 H         137.5605  145.6603  165.7028 H       1  UNL1        0.1466
     20 C         141.6245  141.9735  167.9741 C.ar    1  UNL1        0.0200
     21 C         142.4264  142.5446  169.1058 C.ar    1  UNL1        0.0989
     22 N         141.9468  142.3886  170.5185 N.ar    1  UNL1       -0.2414
     23 C         140.6652  141.6614  170.7994 C.ar    1  UNL1        0.1102
     24 C         139.8634  141.0903  169.6677 C.ar    1  UNL1        0.0768
     25 CL        138.5819  140.3631  169.9486 Cl      1  UNL1       -0.0806
     26 C         140.3430  141.2463  168.2550 C.ar    1  UNL1        0.0145
@<TRIPOS>BOND
     1     1     2    1
     2     2     3    2
     3     3     4    1
     4     4     5    1
     5     5     6    1
     6     4     7    1
     7     7     8   ar
     8     8     9   ar
     9     9    20    1
    10    20    21   ar
    11    21    22   ar
    12    22    23   ar
    13    23    24   ar
    14    24    25    1
    15    24    26   ar
    16     9    10   ar
    17    10    11   ar
    18    11    12   ar
    19    12    13    1
    20    13    14    1
    21    14    15    1
    22    15    16    1
    23    16    17    1
    24     6     2    1
    25    12     7   ar
    26    17    15    1
    27    15     4    1
    28    26    20   ar
    29     1    18    1
    30     1    19    1
@<TRIPOS>MOLECULE
*****
 26 30 0 0 0
SMALL
GASTEIGER

@<TRIPOS>ATOM
      1 N         138.4030  139.1045  167.6691 N.pl3   1  UNL1       -0.3133
      2 C         138.8679  138.9761  166.2487 C.2     1  UNL1        0.2770
      3 N         140.0443  139.6792  165.6392 N.2     1  UNL1       -0.2204
      4 C         140.1415  139.2596  164.2022 C.3     1  UNL1        0.1537
      5 C         139.0251  138.2972  163.9239 C.3     1  UNL1        0.2350
      6 O         138.2380  138.1220  165.1886 O.2     1  UNL1       -0.4478
      7 C         141.2031  140.2302  164.6276 C.ar    1  UNL1        0.0355
      8 C         141.2325  140.7390  166.0384 C.ar    1  UNL1        0.0007
      9 C         142.2942  141.7096  166.4637 C.ar    1  UNL1        0.0015
     10 C         143.3265  142.1714  165.4783 C.ar    1  UNL1        0.0031
     11 C         143.2971  141.6626  164.0674 C.ar    1  UNL1        0.0366
     12 C         142.2354  140.6920  163.6421 C.ar    1  UNL1        0.1364
     13 O         142.2060  140.1833  162.2313 O.3     1  UNL1       -0.4756
     14 C         141.1444  139.2127  161.8060 C.3     1  UNL1        0.2074
     15 C         140.1121  138.7509  162.7915 C.3     1  UNL1        0.0666
     16 C         138.9032  137.9240  163.1149 C.3     1  UNL1        0.0061
     17 C         139.4822  137.8968  161.7314 C.3     1  UNL1        0.0061
     18 H         138.8850  139.6936  168.2935 H       1  UNL1        0.1466
     19 H         137.6159  138.5996  167.9770 H       1  UNL1        0.1466
     20 C         142.3236  142.2183  167.8745 C.ar    1  UNL1        0.0200
     21 C         143.6335  142.3743  168.5884 C.ar    1  UNL1        0.0989
     22 N         143.6629  142.8831  169.9991 N.ar    1  UNL1       -0.2414
     23 C         142.3822  143.2358  170.6961 C.ar    1  UNL1        0.1102
     24 C         141.0723  143.0798  169.9822 C.ar    1  UNL1        0.0768
     25 CL        139.7917  143.4325  170.6790 Cl      1  UNL1       -0.0806
     26 C         141.0430  142.5710  168.5713 C.ar    1  UNL1        0.0145
@<TRIPOS>BOND
     1     1     2    1
     2     2     3    2
     3     3     4    1
     4     4     5    1
     5     5     6    1
     6     4     7    1
     7     7     8   ar
     8     8     9   ar
     9     9    20    1
    10    20    21   ar
    11    21    22   ar
    12    22    23   ar
    13    23    24   ar
    14    24    25    1
    15    24    26   ar
    16     9    10   ar
    17    10    11   ar
    18    11    12   ar
    19    12    13    1
    20    13    14    1
    21    14    15    1
    22    15    16    1
    23    16    17    1
    24     6     2    1
    25    12     7   ar
    26    17    15    1
    27    15     4    1
    28    26    20   ar
    29     1    18    1
    30     1    19    1
@<TRIPOS>MOLECULE
*****
 26 30 0 0 0
SMALL
GASTEIGER

@<TRIPOS>ATOM
      1 N         137.0440  142.3225  164.0250 N.pl3   1  UNL1       -0.3133
      2 C         138.2134  142.7555  163.1913 C.2     1  UNL1        0.2770
      3 N         139.6445  142.8042  163.6377 N.2     1  UNL1       -0.2204
      4 C         140.4726  143.2946  162.4871 C.3     1  UNL1        0.1537
      5 C         139.5531  143.5490  161.3296 C.3     1  UNL1        0.2350
      6 O         138.1569  143.2158  161.7647 O.2     1  UNL1       -0.4478
      7 C         141.2647  142.9964  163.7255 C.ar    1  UNL1        0.0355
      8 C         140.5704  142.4974  164.9579 C.ar    1  UNL1        0.0007
      9 C         141.3626  142.1991  166.1963 C.ar    1  UNL1        0.0015
     10 C         142.8491  142.3999  166.2022 C.ar    1  UNL1        0.0031
     11 C         143.5434  142.8989  164.9697 C.ar    1  UNL1        0.0366
     12 C         142.7512  143.1972  163.7314 C.ar    1  UNL1        0.1364
     13 O         143.4455  143.6962  162.4988 O.3     1  UNL1       -0.4756
     14 C         142.6533  143.9944  161.2605 C.3     1  UNL1        0.2074
     15 C         141.1668  143.7937  161.2547 C.3     1  UNL1        0.0666
     16 C         139.8513  143.8499  160.5363 C.3     1  UNL1        0.0061
     17 C         141.1103  144.2540  159.8282 C.3     1  UNL1        0.0061
     18 H         137.1828  142.0358  164.9565 H       1  UNL1        0.1466
     19 H         136.1376  142.3250  163.6406 H       1  UNL1        0.1466
     20 C         140.6683  141.7001  167.4287 C.ar    1  UNL1        0.0200
     21 C         140.1398  140.2971  167.4756 C.ar    1  UNL1        0.0989
     22 N         139.4455  139.7981  168.7081 N.ar    1  UNL1       -0.2414
     23 C         139.2797  140.7020  169.8936 C.ar    1  UNL1        0.1102
     24 C         139.8083  142.1050  169.8466 C.ar    1  UNL1        0.0768
     25 CL        139.6426  143.0090  171.0321 Cl      1  UNL1       -0.0806
     26 C         140.5026  142.6040  168.6141 C.ar    1  UNL1        0.0145
@<TRIPOS>BOND
     1     1     2    1
     2     2     3    2
     3     3     4    1
     4     4     5    1
     5     5     6    1
     6     4     7    1
     7     7     8   ar
     8     8     9   ar
     9     9    20    1
    10    20    21   ar
    11    21    22   ar
    12    22    23   ar
    13    23    24   ar
    14    24    25    1
    15    24    26   ar
    16     9    10   ar
    17    10    11   ar
    18    11    12   ar
    19    12    13    1
    20    13    14    1
    21    14    15    1
    22    15    16    1
    23    16    17    1
    24     6     2    1
    25    12     7   ar
    26    17    15    1
    27    15     4    1
    28    26    20   ar
    29     1    18    1
    30     1    19    1
