@<TRIPOS>MOLECULE
*****
 32 34 0 0 0
SMALL
GASTEIGER

@<TRIPOS>ATOM
      1 C         138.6830  141.8142  164.9155 C.3     1  UNL1        0.1688
      2 C         139.5620  142.9637  165.3105 C.3     1  UNL1        0.0609
      3 C         139.5949  144.2059  164.4703 C.3     1  UNL1        0.0758
      4 N         138.7489  144.2985  163.2351 N.3     1  UNL1       -0.2724
      5 C         137.8699  143.1491  162.8402 C.3     1  UNL1        0.0758
      6 C         137.8369  141.9068  163.6804 C.3     1  UNL1        0.0609
      7 O         138.6501  140.5720  165.7557 O.3     1  UNL1       -0.4776
      8 C         140.8450  140.1000  169.0282 C.ar    1  UNL1       -0.0191
      9 C         139.6875  140.4312  168.1335 C.ar    1  UNL1        0.0342
     10 C         139.8075  140.2409  166.6505 C.ar    1  UNL1        0.1555
     11 C         141.0851  139.7194  166.0622 C.ar    1  UNL1        0.1151
     12 N         141.2051  139.5291  164.5792 N.ar    1  UNL1       -0.2408
     13 C         142.4826  139.0076  163.9909 C.ar    1  UNL1        0.0989
     14 C         143.6400  138.6765  164.8857 C.ar    1  UNL1        0.0207
     15 C         143.5200  138.8668  166.3687 C.ar    1  UNL1        0.0032
     16 C         142.2425  139.3882  166.9569 C.ar    1  UNL1        0.0204
     17 C         142.1225  139.5785  168.4400 C.ar    1  UNL1       -0.0026
     18 C         140.7249  140.2903  170.5113 C.3     1  UNL1        0.0265
     19 C         140.8950  141.6558  171.1084 C.3     1  UNL1        0.0047
     20 C         143.0365  142.8421  170.2386 C.3     1  UNL1        0.0000
     21 C         141.5411  142.7486  170.3095 C.3     1  UNL1        0.0003
     22 C         138.7818  145.5407  162.3950 C.3     1  UNL1        0.0721
     23 C         140.0790  146.0175  161.8117 C.3     1  UNL1        0.0188
     24 C         140.8295  145.1514  160.8440 C.3     1  UNL1        0.0202
     25 C         141.9770  144.3123  161.3225 C.3     1  UNL1        0.0911
     26 N         143.1294  144.9546  162.0364 N.3     1  UNL1       -0.1833
     27 H         142.8447  145.9092  162.2557 H       1  UNL1        0.1484
     28 S         143.6516  144.3554  163.3084 S.O2    1  UNL1        0.0407
     29 O         144.5145  143.4206  162.5138 O.2     1  UNL1       -0.1575
     30 O         142.7887  145.2902  164.1031 O.2     1  UNL1       -0.1575
     31 C         144.1738  143.7562  164.5806 C.3     1  UNL1        0.1689
     32 C         143.3352  142.7777  165.3483 C.3     1  UNL1        0.0289
@<TRIPOS>BOND
     1    20    21    1
     2    21    19    1
     3    19    18    1
     4    18     8    1
     5     8     9   ar
     6     9    10   ar
     7    10     7    1
     8     7     1    1
     9     1     2    1
    10     2     3    1
    11     3     4    1
    12     4    22    1
    13    22    23    1
    14    23    24    1
    15    24    25    1
    16    25    26    1
    17    26    28    1
    18    28    29    2
    19    28    30    2
    20    28    31    1
    21    31    32    1
    22     4     5    1
    23     5     6    1
    24    10    11   ar
    25    11    12   ar
    26    12    13   ar
    27    13    14   ar
    28    14    15   ar
    29    15    16   ar
    30    16    17   ar
    31    17     8   ar
    32     6     1    1
    33    16    11   ar
    34    26    27    1
@<TRIPOS>MOLECULE
*****
 32 34 0 0 0
SMALL
GASTEIGER

@<TRIPOS>ATOM
      1 C         141.3049  138.3061  164.7667 C.3     1  UNL1        0.1688
      2 C         141.5785  137.8595  163.3611 C.3     1  UNL1        0.0609
      3 C         140.4578  137.7821  162.3671 C.3     1  UNL1        0.0758
      4 N         139.0634  138.1513  162.7788 N.3     1  UNL1       -0.2724
      5 C         138.7898  138.5978  164.1844 C.3     1  UNL1        0.0758
      6 C         139.9105  138.6752  165.1784 C.3     1  UNL1        0.0609
      7 O         142.4257  138.3835  165.7606 O.3     1  UNL1       -0.4776
      8 C         142.7405  141.0749  168.6601 C.ar    1  UNL1       -0.0191
      9 C         142.4576  139.7856  167.9476 C.ar    1  UNL1        0.0342
     10 C         142.7085  139.6728  166.4731 C.ar    1  UNL1        0.1555
     11 C         143.2424  140.8494  165.7110 C.ar    1  UNL1        0.1151
     12 N         143.4934  140.7366  164.2365 N.ar    1  UNL1       -0.2408
     13 C         144.0273  141.9131  163.4745 C.ar    1  UNL1        0.0989
     14 C         144.3102  143.2024  164.1870 C.ar    1  UNL1        0.0207
     15 C         144.0592  143.3152  165.6615 C.ar    1  UNL1        0.0032
     16 C         143.5253  142.1387  166.4235 C.ar    1  UNL1        0.0204
     17 C         143.2743  142.2514  167.8981 C.ar    1  UNL1       -0.0026
     18 C         142.4894  141.1877  170.1347 C.3     1  UNL1        0.0265
     19 C         141.1209  141.5400  170.6378 C.3     1  UNL1        0.0047
     20 C         140.4266  143.9130  169.8397 C.3     1  UNL1        0.0000
     21 C         140.2272  142.4264  169.8220 C.3     1  UNL1        0.0003
     22 C         137.9427  138.0739  161.7849 C.3     1  UNL1        0.0721
     23 C         137.4914  139.3104  161.0656 C.3     1  UNL1        0.0188
     24 C         138.1215  140.6343  161.3820 C.3     1  UNL1        0.0202
     25 C         137.4479  141.5770  162.3346 C.3     1  UNL1        0.0911
     26 N         137.5618  143.0586  162.1300 N.3     1  UNL1       -0.1833
     27 H         136.6127  143.4137  162.0139 H       1  UNL1        0.1484
     28 S         138.2186  143.9116  163.1745 S.O2    1  UNL1        0.0407
     29 O         138.5540  144.9335  162.1290 O.2     1  UNL1       -0.1575
     30 O         137.8831  142.8897  164.2200 O.2     1  UNL1       -0.1575
     31 C         138.8753  144.7647  164.2191 C.3     1  UNL1        0.1689
     32 C         139.4599  144.1306  165.4464 C.3     1  UNL1        0.0289
@<TRIPOS>BOND
     1    20    21    1
     2    21    19    1
     3    19    18    1
     4    18     8    1
     5     8     9   ar
     6     9    10   ar
     7    10     7    1
     8     7     1    1
     9     1     2    1
    10     2     3    1
    11     3     4    1
    12     4    22    1
    13    22    23    1
    14    23    24    1
    15    24    25    1
    16    25    26    1
    17    26    28    1
    18    28    29    2
    19    28    30    2
    20    28    31    1
    21    31    32    1
    22     4     5    1
    23     5     6    1
    24    10    11   ar
    25    11    12   ar
    26    12    13   ar
    27    13    14   ar
    28    14    15   ar
    29    15    16   ar
    30    16    17   ar
    31    17     8   ar
    32     6     1    1
    33    16    11   ar
    34    26    27    1
@<TRIPOS>MOLECULE
*****
 32 34 0 0 0
SMALL
GASTEIGER

@<TRIPOS>ATOM
      1 C         138.4421  139.0413  163.2666 C.3     1  UNL1        0.1688
      2 C         138.6538  138.2452  162.0130 C.3     1  UNL1        0.0609
      3 C         138.6087  138.9246  160.6765 C.3     1  UNL1        0.0758
      4 N         138.3519  140.4001  160.5935 N.3     1  UNL1       -0.2724
      5 C         138.1402  141.1962  161.8470 C.3     1  UNL1        0.0758
      6 C         138.1852  140.5168  163.1836 C.3     1  UNL1        0.0609
      7 O         138.4871  138.3619  164.6031 O.3     1  UNL1       -0.4776
      8 C         139.6965  139.9010  168.0554 C.ar    1  UNL1       -0.0191
      9 C         138.7987  139.3734  166.9758 C.ar    1  UNL1        0.0342
     10 C         139.3850  138.8894  165.6828 C.ar    1  UNL1        0.1555
     11 C         140.8691  138.9329  165.4693 C.ar    1  UNL1        0.1151
     12 N         141.4554  138.4489  164.1763 N.ar    1  UNL1       -0.2408
     13 C         142.9394  138.4924  163.9629 C.ar    1  UNL1        0.0989
     14 C         143.8373  139.0200  165.0425 C.ar    1  UNL1        0.0207
     15 C         143.2510  139.5040  166.3355 C.ar    1  UNL1        0.0032
     16 C         141.7669  139.4605  166.5489 C.ar    1  UNL1        0.0204
     17 C         141.1806  139.9445  167.8420 C.ar    1  UNL1       -0.0026
     18 C         139.1102  140.3850  169.3485 C.3     1  UNL1        0.0265
     19 C         139.9698  141.1220  170.3324 C.3     1  UNL1        0.0047
     20 C         140.3300  143.4420  169.2198 C.3     1  UNL1        0.0000
     21 C         139.9140  142.6193  170.4031 C.3     1  UNL1        0.0003
     22 C         138.3068  141.0795  159.2570 C.3     1  UNL1        0.0721
     23 C         138.3900  142.5749  159.1726 C.3     1  UNL1        0.0188
     24 C         139.7281  143.2487  159.0992 C.3     1  UNL1        0.0202
     25 C         140.2495  144.0113  160.2808 C.3     1  UNL1        0.0911
     26 N         139.3260  144.8860  161.0759 N.3     1  UNL1       -0.1833
     27 H         138.3774  144.6640  160.7738 H       1  UNL1        0.1484
     28 S         139.3309  144.8154  162.5742 S.O2    1  UNL1        0.0407
     29 O         140.8233  144.9661  162.5764 O.2     1  UNL1       -0.1575
     30 O         137.8386  144.6648  162.5720 O.2     1  UNL1       -0.1575
     31 C         139.3358  144.7449  164.0726 C.3     1  UNL1        0.1689
     32 C         138.0780  144.3947  164.8110 C.3     1  UNL1        0.0289
@<TRIPOS>BOND
     1    20    21    1
     2    21    19    1
     3    19    18    1
     4    18     8    1
     5     8     9   ar
     6     9    10   ar
     7    10     7    1
     8     7     1    1
     9     1     2    1
    10     2     3    1
    11     3     4    1
    12     4    22    1
    13    22    23    1
    14    23    24    1
    15    24    25    1
    16    25    26    1
    17    26    28    1
    18    28    29    2
    19    28    30    2
    20    28    31    1
    21    31    32    1
    22     4     5    1
    23     5     6    1
    24    10    11   ar
    25    11    12   ar
    26    12    13   ar
    27    13    14   ar
    28    14    15   ar
    29    15    16   ar
    30    16    17   ar
    31    17     8   ar
    32     6     1    1
    33    16    11   ar
    34    26    27    1
@<TRIPOS>MOLECULE
*****
 32 34 0 0 0
SMALL
GASTEIGER

@<TRIPOS>ATOM
      1 C         143.0985  140.6006  165.7265 C.3     1  UNL1        0.1688
      2 C         143.0243  141.8080  166.6136 C.3     1  UNL1        0.0609
      3 C         142.8870  141.6408  168.0978 C.3     1  UNL1        0.0758
      4 N         142.8237  140.2663  168.6952 N.3     1  UNL1       -0.2724
      5 C         142.8979  139.0590  167.8082 C.3     1  UNL1        0.0758
      6 C         143.0352  139.2261  166.3238 C.3     1  UNL1        0.0609
      7 O         143.2358  140.7677  164.2422 O.3     1  UNL1       -0.4776
      8 C         140.6032  143.0204  162.3072 C.ar    1  UNL1       -0.0191
      9 C         141.7914  142.6187  163.1299 C.ar    1  UNL1        0.0342
     10 C         142.0476  141.1695  163.4196 C.ar    1  UNL1        0.1555
     11 C         141.1157  140.1219  162.8866 C.ar    1  UNL1        0.1151
     12 N         141.3719  138.6726  163.1762 N.ar    1  UNL1       -0.2408
     13 C         140.4400  137.6251  162.6432 C.ar    1  UNL1        0.0989
     14 C         139.2518  138.0268  161.8206 C.ar    1  UNL1        0.0207
     15 C         138.9955  139.4761  161.5309 C.ar    1  UNL1        0.0032
     16 C         139.9274  140.5236  162.0639 C.ar    1  UNL1        0.0204
     17 C         139.6712  141.9729  161.7742 C.ar    1  UNL1       -0.0026
     18 C         140.3469  144.4698  162.0175 C.3     1  UNL1        0.0265
     19 C         139.3589  145.2368  162.8455 C.3     1  UNL1        0.0047
     20 C         137.8514  144.1392  164.6546 C.3     1  UNL1        0.0000
     21 C         139.1168  144.8493  164.2742 C.3     1  UNL1        0.0003
     22 C         142.6864  140.0992  170.1794 C.3     1  UNL1        0.0721
     23 C         141.5836  140.8018  170.9145 C.3     1  UNL1        0.0188
     24 C         140.1685  140.3229  170.7798 C.3     1  UNL1        0.0202
     25 C         139.3993  140.6003  169.5223 C.3     1  UNL1        0.0911
     26 N         138.6544  139.4921  168.8388 N.3     1  UNL1       -0.1833
     27 H         137.6787  139.5731  169.1246 H       1  UNL1        0.1484
     28 S         138.6606  139.3961  167.3419 S.O2    1  UNL1        0.0407
     29 O         139.6808  140.4937  167.2757 O.2     1  UNL1       -0.1575
     30 O         137.6405  138.2985  167.4081 O.2     1  UNL1       -0.1575
     31 C         138.6668  139.3000  165.8449 C.3     1  UNL1        0.1689
     32 C         138.1044  140.4189  165.0193 C.3     1  UNL1        0.0289
@<TRIPOS>BOND
     1    20    21    1
     2    21    19    1
     3    19    18    1
     4    18     8    1
     5     8     9   ar
     6     9    10   ar
     7    10     7    1
     8     7     1    1
     9     1     2    1
    10     2     3    1
    11     3     4    1
    12     4    22    1
    13    22    23    1
    14    23    24    1
    15    24    25    1
    16    25    26    1
    17    26    28    1
    18    28    29    2
    19    28    30    2
    20    28    31    1
    21    31    32    1
    22     4     5    1
    23     5     6    1
    24    10    11   ar
    25    11    12   ar
    26    12    13   ar
    27    13    14   ar
    28    14    15   ar
    29    15    16   ar
    30    16    17   ar
    31    17     8   ar
    32     6     1    1
    33    16    11   ar
    34    26    27    1
@<TRIPOS>MOLECULE
*****
 32 34 0 0 0
SMALL
GASTEIGER

@<TRIPOS>ATOM
      1 C         141.4501  143.5470  164.8079 C.3     1  UNL1        0.1688
      2 C         140.1392  144.2712  164.7236 C.3     1  UNL1        0.0609
      3 C         139.7451  144.9632  163.4525 C.3     1  UNL1        0.0758
      4 N         140.6619  144.9312  162.2657 N.3     1  UNL1       -0.2724
      5 C         141.9727  144.2070  162.3500 C.3     1  UNL1        0.0758
      6 C         142.3669  143.5149  163.6211 C.3     1  UNL1        0.0609
      7 O         141.8442  142.8549  166.0790 O.3     1  UNL1       -0.4776
      8 C         139.2385  139.8741  166.3520 C.ar    1  UNL1       -0.0191
      9 C         140.1288  140.9290  165.7653 C.ar    1  UNL1        0.0342
     10 C         140.9538  141.7999  166.6657 C.ar    1  UNL1        0.1555
     11 C         140.8885  141.6159  168.1530 C.ar    1  UNL1        0.1151
     12 N         141.7135  142.4867  169.0535 N.ar    1  UNL1       -0.2408
     13 C         141.6482  142.3026  170.5407 C.ar    1  UNL1        0.0989
     14 C         140.7578  141.2477  171.1274 C.ar    1  UNL1        0.0207
     15 C         139.9328  140.3768  170.2269 C.ar    1  UNL1        0.0032
     16 C         139.9981  140.5609  168.7397 C.ar    1  UNL1        0.0204
     17 C         139.1731  139.6900  167.8392 C.ar    1  UNL1       -0.0026
     18 C         138.4134  139.0032  165.4515 C.3     1  UNL1        0.0265
     19 C         138.9074  137.6397  165.0682 C.3     1  UNL1        0.0047
     20 C         140.8373  137.2658  163.3695 C.3     1  UNL1        0.0000
     21 C         140.3641  137.4222  164.7843 C.3     1  UNL1        0.0003
     22 C         140.2678  145.6232  160.9947 C.3     1  UNL1        0.0721
     23 C         140.9155  145.2365  159.6981 C.3     1  UNL1        0.0188
     24 C         140.0727  144.7683  158.5490 C.3     1  UNL1        0.0202
     25 C         139.5948  143.3474  158.4996 C.3     1  UNL1        0.0911
     26 N         138.4454  142.9123  159.3597 N.3     1  UNL1       -0.1833
     27 H         137.8723  142.2883  158.7918 H       1  UNL1        0.1484
     28 S         138.7049  142.2024  160.6554 S.O2    1  UNL1        0.0407
     29 O         139.7183  141.3307  159.9748 O.2     1  UNL1       -0.1575
     30 O         137.6915  143.0741  161.3359 O.2     1  UNL1       -0.1575
     31 C         138.9644  141.4926  161.9511 C.3     1  UNL1        0.1689
     32 C         140.2752  140.7992  162.1770 C.3     1  UNL1        0.0289
@<TRIPOS>BOND
     1    20    21    1
     2    21    19    1
     3    19    18    1
     4    18     8    1
     5     8     9   ar
     6     9    10   ar
     7    10     7    1
     8     7     1    1
     9     1     2    1
    10     2     3    1
    11     3     4    1
    12     4    22    1
    13    22    23    1
    14    23    24    1
    15    24    25    1
    16    25    26    1
    17    26    28    1
    18    28    29    2
    19    28    30    2
    20    28    31    1
    21    31    32    1
    22     4     5    1
    23     5     6    1
    24    10    11   ar
    25    11    12   ar
    26    12    13   ar
    27    13    14   ar
    28    14    15   ar
    29    15    16   ar
    30    16    17   ar
    31    17     8   ar
    32     6     1    1
    33    16    11   ar
    34    26    27    1
@<TRIPOS>MOLECULE
*****
 32 34 0 0 0
SMALL
GASTEIGER

@<TRIPOS>ATOM
      1 C         139.3662  143.2007  164.9593 C.3     1  UNL1        0.1688
      2 C         140.6023  144.0436  164.8516 C.3     1  UNL1        0.0609
      3 C         140.7487  145.0192  163.7217 C.3     1  UNL1        0.0758
      4 N         139.6590  145.1519  162.6995 N.3     1  UNL1       -0.2724
      5 C         138.4229  144.3091  162.8072 C.3     1  UNL1        0.0758
      6 C         138.2765  143.3334  163.9371 C.3     1  UNL1        0.0609
      7 O         139.2198  142.2251  166.0892 O.3     1  UNL1       -0.4776
      8 C         141.9485  139.3434  166.0698 C.ar    1  UNL1       -0.0191
      9 C         140.7846  140.1961  165.6595 C.ar    1  UNL1        0.0342
     10 C         140.3837  141.3724  166.4995 C.ar    1  UNL1        0.1555
     11 C         141.1468  141.6962  167.7497 C.ar    1  UNL1        0.1151
     12 N         140.7460  142.8725  168.5896 N.ar    1  UNL1       -0.2408
     13 C         141.5091  143.1962  169.8397 C.ar    1  UNL1        0.0989
     14 C         142.6730  142.3436  170.2499 C.ar    1  UNL1        0.0207
     15 C         143.0738  141.1672  169.4100 C.ar    1  UNL1        0.0032
     16 C         142.3107  140.8435  168.1599 C.ar    1  UNL1        0.0204
     17 C         142.7116  139.6671  167.3199 C.ar    1  UNL1       -0.0026
     18 C         142.3493  138.1670  165.2298 C.3     1  UNL1        0.0265
     19 C         141.3032  137.2281  164.7063 C.3     1  UNL1        0.0047
     20 C         139.7771  137.9278  162.7235 C.3     1  UNL1        0.0000
     21 C         140.9839  137.2026  163.2409 C.3     1  UNL1        0.0003
     22 C         139.8053  146.1276  161.5696 C.3     1  UNL1        0.0721
     23 C         140.0136  145.6288  160.1703 C.3     1  UNL1        0.0188
     24 C         141.3779  145.1927  159.7248 C.3     1  UNL1        0.0202
     25 C         141.9636  143.9138  160.2455 C.3     1  UNL1        0.0911
     26 N         143.1121  143.9526  161.2097 N.3     1  UNL1       -0.1833
     27 H         143.0740  144.8587  161.6766 H       1  UNL1        0.1484
     28 S         143.2223  142.9148  162.2870 S.O2    1  UNL1        0.0407
     29 O         141.9551  142.2760  161.8013 O.2     1  UNL1       -0.1575
     30 O         144.4896  143.5535  162.7727 O.2     1  UNL1       -0.1575
     31 C         143.3326  141.8768  163.3644 C.3     1  UNL1        0.1689
     32 C         144.0097  142.2104  164.6606 C.3     1  UNL1        0.0289
@<TRIPOS>BOND
     1    20    21    1
     2    21    19    1
     3    19    18    1
     4    18     8    1
     5     8     9   ar
     6     9    10   ar
     7    10     7    1
     8     7     1    1
     9     1     2    1
    10     2     3    1
    11     3     4    1
    12     4    22    1
    13    22    23    1
    14    23    24    1
    15    24    25    1
    16    25    26    1
    17    26    28    1
    18    28    29    2
    19    28    30    2
    20    28    31    1
    21    31    32    1
    22     4     5    1
    23     5     6    1
    24    10    11   ar
    25    11    12   ar
    26    12    13   ar
    27    13    14   ar
    28    14    15   ar
    29    15    16   ar
    30    16    17   ar
    31    17     8   ar
    32     6     1    1
    33    16    11   ar
    34    26    27    1
@<TRIPOS>MOLECULE
*****
 32 34 0 0 0
SMALL
GASTEIGER

@<TRIPOS>ATOM
      1 C         138.9543  139.5945  164.9402 C.3     1  UNL1        0.1688
      2 C         139.2864  138.4841  163.9880 C.3     1  UNL1        0.0609
      3 C         138.7662  138.5213  162.5816 C.3     1  UNL1        0.0758
      4 N         137.9139  139.6691  162.1273 N.3     1  UNL1       -0.2724
      5 C         137.5818  140.7795  163.0795 C.3     1  UNL1        0.0758
      6 C         138.1020  140.7422  164.4859 C.3     1  UNL1        0.0609
      7 O         139.4745  139.5572  166.3466 O.3     1  UNL1       -0.4776
      8 C         142.6209  141.9602  166.0710 C.ar    1  UNL1       -0.0191
      9 C         141.4527  141.1041  165.6805 C.ar    1  UNL1        0.0342
     10 C         140.6426  140.4134  166.7371 C.ar    1  UNL1        0.1555
     11 C         141.0006  140.5787  168.1844 C.ar    1  UNL1        0.1151
     12 N         140.1905  139.8880  169.2411 N.ar    1  UNL1       -0.2408
     13 C         140.5486  140.0533  170.6882 C.ar    1  UNL1        0.0989
     14 C         141.7167  140.9095  171.0788 C.ar    1  UNL1        0.0207
     15 C         142.5268  141.6002  170.0221 C.ar    1  UNL1        0.0032
     16 C         142.1688  141.4348  168.5750 C.ar    1  UNL1        0.0204
     17 C         142.9789  142.1256  167.5182 C.ar    1  UNL1       -0.0026
     18 C         143.4310  142.6510  165.0143 C.3     1  UNL1        0.0265
     19 C         144.7638  142.0954  164.6083 C.3     1  UNL1        0.0047
     20 C         144.9618  139.5156  164.3728 C.3     1  UNL1        0.0000
     21 C         144.8344  140.8715  163.7440 C.3     1  UNL1        0.0003
     22 C         137.3937  139.7063  160.7210 C.3     1  UNL1        0.0721
     23 C         138.2994  140.1142  159.5968 C.3     1  UNL1        0.0188
     24 C         138.4561  141.5647  159.2486 C.3     1  UNL1        0.0202
     25 C         139.1803  142.4866  160.1842 C.3     1  UNL1        0.0911
     26 N         138.4093  143.4681  161.0164 N.3     1  UNL1       -0.1833
     27 H         137.6009  142.9686  161.3872 H       1  UNL1        0.1484
     28 S         139.0698  144.1470  162.1795 S.O2    1  UNL1        0.0407
     29 O         137.7476  144.7204  162.5955 O.2     1  UNL1       -0.1575
     30 O         140.3919  143.5736  161.7635 O.2     1  UNL1       -0.1575
     31 C         139.7302  144.8260  163.3426 C.3     1  UNL1        0.1689
     32 C         141.2046  145.1005  163.3123 C.3     1  UNL1        0.0289
@<TRIPOS>BOND
     1    20    21    1
     2    21    19    1
     3    19    18    1
     4    18     8    1
     5     8     9   ar
     6     9    10   ar
     7    10     7    1
     8     7     1    1
     9     1     2    1
    10     2     3    1
    11     3     4    1
    12     4    22    1
    13    22    23    1
    14    23    24    1
    15    24    25    1
    16    25    26    1
    17    26    28    1
    18    28    29    2
    19    28    30    2
    20    28    31    1
    21    31    32    1
    22     4     5    1
    23     5     6    1
    24    10    11   ar
    25    11    12   ar
    26    12    13   ar
    27    13    14   ar
    28    14    15   ar
    29    15    16   ar
    30    16    17   ar
    31    17     8   ar
    32     6     1    1
    33    16    11   ar
    34    26    27    1
@<TRIPOS>MOLECULE
*****
 32 34 0 0 0
SMALL
GASTEIGER

@<TRIPOS>ATOM
      1 C         139.3641  139.3290  165.1916 C.3     1  UNL1        0.1688
      2 C         138.4513  140.4659  164.8390 C.3     1  UNL1        0.0609
      3 C         137.7915  140.5081  163.4926 C.3     1  UNL1        0.0758
      4 N         138.0444  139.4133  162.4988 N.3     1  UNL1       -0.2724
      5 C         138.9571  138.2764  162.8514 C.3     1  UNL1        0.0758
      6 C         139.6169  138.2342  164.1979 C.3     1  UNL1        0.0609
      7 O         140.0239  139.2868  166.5380 O.3     1  UNL1       -0.4776
      8 C         143.0752  141.7992  166.1812 C.ar    1  UNL1       -0.0191
      9 C         142.0199  140.7923  165.8313 C.ar    1  UNL1        0.0342
     10 C         141.0792  140.2937  166.8879 C.ar    1  UNL1        0.1555
     11 C         141.1939  140.8020  168.2946 C.ar    1  UNL1        0.1151
     12 N         140.2533  140.3034  169.3512 N.ar    1  UNL1       -0.2408
     13 C         140.3680  140.8116  170.7578 C.ar    1  UNL1        0.0989
     14 C         141.4233  141.8185  171.1077 C.ar    1  UNL1        0.0207
     15 C         142.3640  142.3171  170.0511 C.ar    1  UNL1        0.0032
     16 C         142.2493  141.8088  168.6445 C.ar    1  UNL1        0.0204
     17 C         143.1899  142.3075  167.5878 C.ar    1  UNL1       -0.0026
     18 C         144.0159  142.2978  165.1245 C.3     1  UNL1        0.0265
     19 C         144.4273  143.7402  165.1067 C.3     1  UNL1        0.0047
     20 C         143.6439  144.5863  162.7785 C.3     1  UNL1        0.0000
     21 C         143.6664  144.7269  164.2718 C.3     1  UNL1        0.0003
     22 C         137.3845  139.4555  161.1524 C.3     1  UNL1        0.0721
     23 C         137.9550  140.3161  160.0642 C.3     1  UNL1        0.0188
     24 C         139.1142  141.2225  160.3549 C.3     1  UNL1        0.0202
     25 C         138.8787  142.6807  160.6164 C.3     1  UNL1        0.0911
     26 N         139.9148  143.4900  161.3387 N.3     1  UNL1       -0.1833
     27 H         140.1259  144.2935  160.7470 H       1  UNL1        0.1484
     28 S         139.6264  144.0256  162.7098 S.O2    1  UNL1        0.0407
     29 O         138.7537  145.0885  162.1109 O.2     1  UNL1       -0.1575
     30 O         140.4991  142.9627  163.3086 O.2     1  UNL1       -0.1575
     31 C         139.3380  144.5612  164.0809 C.3     1  UNL1        0.1689
     32 C         138.0229  144.2673  164.7396 C.3     1  UNL1        0.0289
@<TRIPOS>BOND
     1    20    21    1
     2    21    19    1
     3    19    18    1
     4    18     8    1
     5     8     9   ar
     6     9    10   ar
     7    10     7    1
     8     7     1    1
     9     1     2    1
    10     2     3    1
    11     3     4    1
    12     4    22    1
    13    22    23    1
    14    23    24    1
    15    24    25    1
    16    25    26    1
    17    26    28    1
    18    28    29    2
    19    28    30    2
    20    28    31    1
    21    31    32    1
    22     4     5    1
    23     5     6    1
    24    10    11   ar
    25    11    12   ar
    26    12    13   ar
    27    13    14   ar
    28    14    15   ar
    29    15    16   ar
    30    16    17   ar
    31    17     8   ar
    32     6     1    1
    33    16    11   ar
    34    26    27    1
@<TRIPOS>MOLECULE
*****
 32 34 0 0 0
SMALL
GASTEIGER

@<TRIPOS>ATOM
      1 C         141.3671  143.5553  164.8412 C.3     1  UNL1        0.1688
      2 C         142.6463  142.8274  165.1307 C.3     1  UNL1        0.0609
      3 C         143.7292  142.7726  164.0942 C.3     1  UNL1        0.0758
      4 N         143.5329  143.4458  162.7682 N.3     1  UNL1       -0.2724
      5 C         142.2538  144.1737  162.4787 C.3     1  UNL1        0.0758
      6 C         141.1708  144.2285  163.5152 C.3     1  UNL1        0.0609
      7 O         140.2842  143.6101  165.8777 O.3     1  UNL1       -0.4776
      8 C         140.1176  141.3687  169.1485 C.ar    1  UNL1       -0.0191
      9 C         140.3518  142.5435  168.2458 C.ar    1  UNL1        0.0342
     10 C         140.0500  142.4353  166.7805 C.ar    1  UNL1        0.1555
     11 C         139.5139  141.1522  166.2178 C.ar    1  UNL1        0.1151
     12 N         139.2121  141.0440  164.7525 N.ar    1  UNL1       -0.2408
     13 C         138.6761  139.7610  164.1900 C.ar    1  UNL1        0.0989
     14 C         138.4419  138.5862  165.0928 C.ar    1  UNL1        0.0207
     15 C         138.7437  138.6944  166.5581 C.ar    1  UNL1        0.0032
     16 C         139.2797  139.9774  167.1206 C.ar    1  UNL1        0.0204
     17 C         139.5815  140.0857  168.5860 C.ar    1  UNL1       -0.0026
     18 C         140.4194  141.4770  170.6139 C.3     1  UNL1        0.0265
     19 C         141.8182  141.7658  171.0722 C.3     1  UNL1        0.0047
     20 C         143.8652  142.3122  169.5686 C.3     1  UNL1        0.0000
     21 C         142.9863  141.3064  170.2510 C.3     1  UNL1        0.0003
     22 C         144.6158  143.3910  161.7317 C.3     1  UNL1        0.0721
     23 C         144.7506  142.1843  160.8509 C.3     1  UNL1        0.0188
     24 C         143.6118  141.2161  160.7258 C.3     1  UNL1        0.0202
     25 C         143.8149  139.7707  161.0714 C.3     1  UNL1        0.0911
     26 N         144.6496  139.3937  162.2594 N.3     1  UNL1       -0.1833
     27 H         145.3303  140.1419  162.3904 H       1  UNL1        0.1484
     28 S         143.9983  139.1630  163.5908 S.O2    1  UNL1        0.0407
     29 O         142.7254  138.7721  162.9004 O.2     1  UNL1       -0.1575
     30 O         145.2713  139.5539  164.2812 O.2     1  UNL1       -0.1575
     31 C         143.3471  138.9323  164.9223 C.3     1  UNL1        0.1689
     32 C         142.1078  138.0925  165.0155 C.3     1  UNL1        0.0289
@<TRIPOS>BOND
     1    20    21    1
     2    21    19    1
     3    19    18    1
     4    18     8    1
     5     8     9   ar
     6     9    10   ar
     7    10     7    1
     8     7     1    1
     9     1     2    1
    10     2     3    1
    11     3     4    1
    12     4    22    1
    13    22    23    1
    14    23    24    1
    15    24    25    1
    16    25    26    1
    17    26    28    1
    18    28    29    2
    19    28    30    2
    20    28    31    1
    21    31    32    1
    22     4     5    1
    23     5     6    1
    24    10    11   ar
    25    11    12   ar
    26    12    13   ar
    27    13    14   ar
    28    14    15   ar
    29    15    16   ar
    30    16    17   ar
    31    17     8   ar
    32     6     1    1
    33    16    11   ar
    34    26    27    1
