@<TRIPOS>MOLECULE
*****
 35 40 0 0 0
SMALL
GASTEIGER

@<TRIPOS>ATOM
      1 N         139.6721  140.8227  167.1115 N.pl3   1  UNL1       -0.3033
      2 H         138.7327  140.5364  167.0420 H       1  UNL1        0.1496
      3 C         140.6068  140.6148  165.9569 C.ar    1  UNL1        0.2365
      4 N         140.6653  141.4454  164.7093 N.ar    1  UNL1       -0.1798
      5 C         141.7418  140.8838  163.8285 C.ar    1  UNL1        0.2234
      6 N         142.3486  139.7060  164.5318 N.ar    1  UNL1       -0.2192
      7 N         141.6471  139.5397  165.8472 N.ar    1  UNL1       -0.1317
      8 C         143.4614  138.9370  163.8835 C.3     1  UNL1        0.1322
      9 C         143.9675  139.3459  162.5320 C.3     1  UNL1        0.0483
     10 C         143.3607  140.5237  161.8287 C.3     1  UNL1        0.1005
     11 N         142.2479  141.2927  162.4770 N.pl3   1  UNL1       -0.2573
     12 C         141.6411  142.4705  161.7737 C.ar    1  UNL1        0.0564
     13 C         141.1892  142.3423  160.3492 C.ar    1  UNL1        0.0174
     14 C         140.5824  143.5201  159.6459 C.ar    1  UNL1        0.0332
     15 C         140.4276  144.8261  160.3672 C.ar    1  UNL1        0.1675
     16 F         139.8208  146.0039  159.6639 F       1  UNL1       -0.2018
     17 C         140.8795  144.9543  161.7917 C.ar    1  UNL1        0.1686
     18 F         140.7247  146.2604  162.5130 F       1  UNL1       -0.2018
     19 C         141.4863  143.7765  162.4949 C.ar    1  UNL1        0.0469
     20 N         139.7404  140.9477  167.1774 N.pl3   1  UNL1       -0.3072
     21 C         139.6127  140.2287  168.4876 C.3     1  UNL1        0.0924
     22 C         140.1093  140.8727  169.7481 C.3     1  UNL1        0.0378
     23 C         140.7157  141.8566  170.7042 C.3     1  UNL1        0.0035
     24 C         141.1498  143.0588  169.9190 C.3     1  UNL1        0.0035
     25 C         140.8117  142.8177  168.4775 C.3     1  UNL1        0.0378
     26 C         140.3646  142.3108  167.1276 C.3     1  UNL1        0.0924
     27 C         140.1686  141.4667  168.3719 C.3     1  UNL1        0.0750
     28 C         138.0109  140.4767  163.6366 C.ar    1  UNL1        0.2262
     29 C         138.5074  141.1207  164.8970 C.ar    1  UNL1        0.0722
     30 C         139.2438  140.3037  165.9169 C.ar    1  UNL1        0.0541
     31 C         139.4837  138.8427  165.6763 C.ar    1  UNL1        0.0354
     32 C         138.9872  138.1987  164.4159 C.ar    1  UNL1        0.1033
     33 N         138.2508  139.0157  163.3961 N.ar    1  UNL1       -0.2101
     34 C         137.8518  142.5926  162.1373 C.3     1  UNL1        0.2542
     35 O         137.2745  141.2938  162.6167 O.3     1  UNL1       -0.4561
@<TRIPOS>BOND
     1    34    35    1
     2    35    28    1
     3    28    29   ar
     4    29    30   ar
     5    30    20    1
     6    20    21    1
     7    22    21    1
     8    22    23    1
     9    23    24    1
    10    25    24    1
    11    25    26    1
    12    25    27    1
    13    27     1    1
    14     1     3    1
    15     3     4   ar
    16     4     5   ar
    17     5     6   ar
    18     6     7   ar
    19     6     8    1
    20     8     9    1
    21     9    10    1
    22    10    11    1
    23    11    12    1
    24    12    13   ar
    25    13    14   ar
    26    14    15   ar
    27    15    16    1
    28    15    17   ar
    29    17    18    1
    30    17    19   ar
    31    30    31   ar
    32    31    32   ar
    33    32    33   ar
    34    33    28   ar
    35    26    20    1
    36     7     3   ar
    37    19    12   ar
    38    27    22    1
    39    11     5    1
    40     1     2    1
@<TRIPOS>MOLECULE
*****
 35 40 0 0 0
SMALL
GASTEIGER

@<TRIPOS>ATOM
      1 N         141.7504  142.8454  162.4032 N.pl3   1  UNL1       -0.3033
      2 H         142.6577  142.5972  162.1125 H       1  UNL1        0.1496
      3 C         141.0627  142.0520  163.4744 C.ar    1  UNL1        0.2365
      4 N         141.3014  142.1711  164.9505 N.ar    1  UNL1       -0.1798
      5 C         140.4017  141.1928  165.6460 C.ar    1  UNL1        0.2234
      6 N         139.6071  140.4691  164.5997 N.ar    1  UNL1       -0.2192
      7 N         140.0156  141.0001  163.2576 N.ar    1  UNL1       -0.1317
      8 C         138.6142  139.4201  165.0042 C.3     1  UNL1        0.1322
      9 C         138.4159  139.0948  166.4550 C.3     1  UNL1        0.0483
     10 C         139.2106  139.8186  167.5013 C.3     1  UNL1        0.1005
     11 N         140.2035  140.8676  167.0968 N.pl3   1  UNL1       -0.2573
     12 C         140.9982  141.5913  168.1430 C.ar    1  UNL1        0.0564
     13 C         142.3126  141.0353  168.6046 C.ar    1  UNL1        0.0174
     14 C         143.1072  141.7591  169.6509 C.ar    1  UNL1        0.0332
     15 C         142.5875  143.0389  170.2356 C.ar    1  UNL1        0.1675
     16 F         143.3821  143.7626  171.2819 F       1  UNL1       -0.2018
     17 C         141.2731  143.5949  169.7740 C.ar    1  UNL1        0.1686
     18 F         140.7533  144.8748  170.3587 F       1  UNL1       -0.2018
     19 C         140.4784  142.8711  168.7277 C.ar    1  UNL1        0.0469
     20 N         141.6839  142.9861  162.4245 N.pl3   1  UNL1       -0.3072
     21 C         141.4210  142.9985  160.9478 C.3     1  UNL1        0.0924
     22 C         140.7264  144.1702  160.3195 C.3     1  UNL1        0.0378
     23 C         140.0357  145.4891  160.1367 C.3     1  UNL1        0.0035
     24 C         139.9382  146.1512  161.4792 C.3     1  UNL1        0.0035
     25 C         140.5687  145.2414  162.4916 C.3     1  UNL1        0.0378
     26 C         141.2522  144.1453  163.2730 C.3     1  UNL1        0.0924
     27 C         141.0559  144.0171  161.7749 C.3     1  UNL1        0.0750
     28 C         142.7673  139.2507  163.2139 C.ar    1  UNL1        0.2262
     29 C         142.0727  140.4223  162.5855 C.ar    1  UNL1        0.0722
     30 C         142.3785  141.8144  163.0529 C.ar    1  UNL1        0.0541
     31 C         143.3788  142.0349  164.1487 C.ar    1  UNL1        0.0354
     32 C         144.0734  140.8633  164.7770 C.ar    1  UNL1        0.1033
     33 N         143.7677  139.4712  164.3096 N.ar    1  UNL1       -0.2101
     34 C         141.0993  137.2732  162.9740 C.3     1  UNL1        0.2542
     35 O         142.4616  137.8585  162.7465 O.3     1  UNL1       -0.4561
@<TRIPOS>BOND
     1    34    35    1
     2    35    28    1
     3    28    29   ar
     4    29    30   ar
     5    30    20    1
     6    20    21    1
     7    22    21    1
     8    22    23    1
     9    23    24    1
    10    25    24    1
    11    25    26    1
    12    25    27    1
    13    27     1    1
    14     1     3    1
    15     3     4   ar
    16     4     5   ar
    17     5     6   ar
    18     6     7   ar
    19     6     8    1
    20     8     9    1
    21     9    10    1
    22    10    11    1
    23    11    12    1
    24    12    13   ar
    25    13    14   ar
    26    14    15   ar
    27    15    16    1
    28    15    17   ar
    29    17    18    1
    30    17    19   ar
    31    30    31   ar
    32    31    32   ar
    33    32    33   ar
    34    33    28   ar
    35    26    20    1
    36     7     3   ar
    37    19    12   ar
    38    27    22    1
    39    11     5    1
    40     1     2    1
@<TRIPOS>MOLECULE
*****
 35 40 0 0 0
SMALL
GASTEIGER

@<TRIPOS>ATOM
      1 N         139.6570  141.8759  162.5485 N.pl3   1  UNL1       -0.3033
      2 H         138.8365  141.4426  162.2192 H       1  UNL1        0.1496
      3 C         140.5126  141.1846  163.5684 C.ar    1  UNL1        0.2365
      4 N         140.4425  141.3770  165.0543 N.ar    1  UNL1       -0.1798
      5 C         141.4751  140.4909  165.6857 C.ar    1  UNL1        0.2234
      6 N         142.1833  139.7509  164.5900 N.ar    1  UNL1       -0.2192
      7 N         141.5885  140.1796  163.2814 N.ar    1  UNL1       -0.1317
      8 C         143.2784  138.7822  164.9253 C.3     1  UNL1        0.1322
      9 C         143.6652  138.5536  166.3564 C.3     1  UNL1        0.0483
     10 C         142.9569  139.2937  167.4522 C.3     1  UNL1        0.1005
     11 N         141.8619  140.2623  167.1168 N.pl3   1  UNL1       -0.2573
     12 C         141.1536  141.0024  168.2126 C.ar    1  UNL1        0.0564
     13 C         139.9904  140.3681  168.9158 C.ar    1  UNL1        0.0174
     14 C         139.2821  141.1081  170.0116 C.ar    1  UNL1        0.0332
     15 C         139.7370  142.4825  170.4041 C.ar    1  UNL1        0.1675
     16 F         139.0288  143.2225  171.4998 F       1  UNL1       -0.2018
     17 C         140.9002  143.1168  169.7008 C.ar    1  UNL1        0.1686
     18 F         141.3552  144.4913  170.0933 F       1  UNL1       -0.2018
     19 C         141.6085  142.3768  168.6051 C.ar    1  UNL1        0.0469
     20 N         139.7594  141.9598  162.4640 N.pl3   1  UNL1       -0.3072
     21 C         138.9273  143.1627  162.7967 C.3     1  UNL1        0.0924
     22 C         139.3217  144.5140  162.2786 C.3     1  UNL1        0.0378
     23 C         140.0641  145.6111  161.5748 C.3     1  UNL1        0.0035
     24 C         141.2526  145.0022  160.8914 C.3     1  UNL1        0.0035
     25 C         141.2447  143.5288  161.1730 C.3     1  UNL1        0.0378
     26 C         140.9858  142.1082  161.6132 C.3     1  UNL1        0.0924
     27 C         140.0514  143.2271  162.0304 C.3     1  UNL1        0.0750
     28 C         138.2621  139.1361  164.8168 C.ar    1  UNL1        0.2262
     29 C         138.6565  140.4874  164.2987 C.ar    1  UNL1        0.0722
     30 C         139.3650  140.6084  162.9822 C.ar    1  UNL1        0.0541
     31 C         139.6791  139.3781  162.1836 C.ar    1  UNL1        0.0354
     32 C         139.2847  138.0268  162.7017 C.ar    1  UNL1        0.1033
     33 N         138.5763  137.9058  164.0182 N.ar    1  UNL1       -0.2101
     34 C         137.5465  137.7048  166.8635 C.3     1  UNL1        0.2542
     35 O         137.5536  139.0151  166.1334 O.3     1  UNL1       -0.4561
@<TRIPOS>BOND
     1    34    35    1
     2    35    28    1
     3    28    29   ar
     4    29    30   ar
     5    30    20    1
     6    20    21    1
     7    22    21    1
     8    22    23    1
     9    23    24    1
    10    25    24    1
    11    25    26    1
    12    25    27    1
    13    27     1    1
    14     1     3    1
    15     3     4   ar
    16     4     5   ar
    17     5     6   ar
    18     6     7   ar
    19     6     8    1
    20     8     9    1
    21     9    10    1
    22    10    11    1
    23    11    12    1
    24    12    13   ar
    25    13    14   ar
    26    14    15   ar
    27    15    16    1
    28    15    17   ar
    29    17    18    1
    30    17    19   ar
    31    30    31   ar
    32    31    32   ar
    33    32    33   ar
    34    33    28   ar
    35    26    20    1
    36     7     3   ar
    37    19    12   ar
    38    27    22    1
    39    11     5    1
    40     1     2    1
@<TRIPOS>MOLECULE
*****
 35 40 0 0 0
SMALL
GASTEIGER

@<TRIPOS>ATOM
      1 N         142.2125  140.3915  167.3384 N.pl3   1  UNL1       -0.3033
      2 H         143.1811  140.5363  167.4391 H       1  UNL1        0.1496
      3 C         141.6264  140.1592  165.9773 C.ar    1  UNL1        0.2365
      4 N         141.1782  141.2210  165.0174 N.ar    1  UNL1       -0.1798
      5 C         140.6604  140.5423  163.7840 C.ar    1  UNL1        0.2234
      6 N         140.7888  139.0610  163.9816 N.ar    1  UNL1       -0.2192
      7 N         141.3858  138.8242  165.3371 N.ar    1  UNL1       -0.1317
      8 C         140.3454  138.1191  162.9017 C.3     1  UNL1        0.1322
      9 C         139.7737  138.6586  161.6241 C.3     1  UNL1        0.0483
     10 C         139.6454  140.1400  161.4265 C.3     1  UNL1        0.1005
     11 N         140.0888  141.0819  162.5065 N.pl3   1  UNL1       -0.2573
     12 C         139.9605  142.5632  162.3089 C.ar    1  UNL1        0.0564
     13 C         139.0107  143.3538  163.1591 C.ar    1  UNL1        0.0174
     14 C         138.8824  144.8352  162.9615 C.ar    1  UNL1        0.0332
     15 C         139.7039  145.5260  161.9137 C.ar    1  UNL1        0.1675
     16 F         139.5755  147.0074  161.7161 F       1  UNL1       -0.2018
     17 C         140.6536  144.7354  161.0635 C.ar    1  UNL1        0.1686
     18 F         141.4751  145.4262  160.0156 F       1  UNL1       -0.2018
     19 C         140.7819  143.2541  161.2611 C.ar    1  UNL1        0.0469
     20 N         142.0868  140.4540  167.4088 N.pl3   1  UNL1       -0.3072
     21 C         142.3643  139.5255  168.5537 C.3     1  UNL1        0.0924
     22 C         141.4747  139.5371  169.7614 C.3     1  UNL1        0.0378
     23 C         140.3708  139.8815  170.7169 C.3     1  UNL1        0.0035
     24 C         139.5367  140.9604  170.0921 C.3     1  UNL1        0.0035
     25 C         140.1252  141.2828  168.7504 C.3     1  UNL1        0.0378
     26 C         140.9197  141.3941  167.4715 C.3     1  UNL1        0.0924
     27 C         141.3229  140.4031  168.5460 C.3     1  UNL1        0.0750
     28 C         144.2127  141.7175  164.3049 C.ar    1  UNL1        0.2262
     29 C         143.3231  141.7291  165.5126 C.ar    1  UNL1        0.0722
     30 C         142.9765  140.4424  166.2011 C.ar    1  UNL1        0.0541
     31 C         143.5195  139.1440  165.6821 C.ar    1  UNL1        0.0354
     32 C         144.4091  139.1324  164.4744 C.ar    1  UNL1        0.1033
     33 N         144.7557  140.4191  163.7859 N.ar    1  UNL1       -0.2101
     34 C         143.5882  144.1473  163.6297 C.3     1  UNL1        0.2542
     35 O         144.5594  143.0042  163.6163 O.3     1  UNL1       -0.4561
@<TRIPOS>BOND
     1    34    35    1
     2    35    28    1
     3    28    29   ar
     4    29    30   ar
     5    30    20    1
     6    20    21    1
     7    22    21    1
     8    22    23    1
     9    23    24    1
    10    25    24    1
    11    25    26    1
    12    25    27    1
    13    27     1    1
    14     1     3    1
    15     3     4   ar
    16     4     5   ar
    17     5     6   ar
    18     6     7   ar
    19     6     8    1
    20     8     9    1
    21     9    10    1
    22    10    11    1
    23    11    12    1
    24    12    13   ar
    25    13    14   ar
    26    14    15   ar
    27    15    16    1
    28    15    17   ar
    29    17    18    1
    30    17    19   ar
    31    30    31   ar
    32    31    32   ar
    33    32    33   ar
    34    33    28   ar
    35    26    20    1
    36     7     3   ar
    37    19    12   ar
    38    27    22    1
    39    11     5    1
    40     1     2    1
@<TRIPOS>MOLECULE
*****
 35 40 0 0 0
SMALL
GASTEIGER

@<TRIPOS>ATOM
      1 N         140.3610  140.4685  167.3291 N.pl3   1  UNL1       -0.3033
      2 H         140.7315  139.5754  167.5144 H       1  UNL1        0.1496
      3 C         139.8919  140.8138  165.9468 C.ar    1  UNL1        0.2365
      4 N         140.7655  141.1980  164.7896 N.ar    1  UNL1       -0.1798
      5 C         139.8804  141.4572  163.6066 C.ar    1  UNL1        0.2234
      6 N         138.4598  141.2334  164.0327 N.ar    1  UNL1       -0.2192
      7 N         138.4669  140.8357  165.4790 N.ar    1  UNL1       -0.1317
      8 C         137.3432  141.4205  163.0487 C.3     1  UNL1        0.1322
      9 C         137.6474  141.8315  161.6386 C.3     1  UNL1        0.0483
     10 C         139.0680  142.0554  161.2125 C.3     1  UNL1        0.1005
     11 N         140.1845  141.8683  162.1965 N.pl3   1  UNL1       -0.2573
     12 C         141.6052  142.0922  161.7703 C.ar    1  UNL1        0.0564
     13 C         142.2388  141.1792  160.7628 C.ar    1  UNL1        0.0174
     14 C         143.6594  141.4031  160.3367 C.ar    1  UNL1        0.0332
     15 C         144.4465  142.5399  160.9180 C.ar    1  UNL1        0.1675
     16 F         145.8672  142.7638  160.4919 F       1  UNL1       -0.2018
     17 C         143.8130  143.4529  161.9255 C.ar    1  UNL1        0.1686
     18 F         144.6001  144.5898  162.5069 F       1  UNL1       -0.2018
     19 C         142.3923  143.2290  162.3517 C.ar    1  UNL1        0.0469
     20 N         140.3956  140.6138  167.3776 N.pl3   1  UNL1       -0.3072
     21 C         139.6941  140.2689  168.6578 C.3     1  UNL1        0.0924
     22 C         139.5987  141.2842  169.7578 C.3     1  UNL1        0.0378
     23 C         139.7411  142.5541  170.5434 C.3     1  UNL1        0.0035
     24 C         140.4960  143.5386  169.7002 C.3     1  UNL1        0.0035
     25 C         140.8201  142.8771  168.3934 C.3     1  UNL1        0.0378
     26 C         141.0016  141.9740  167.1973 C.3     1  UNL1        0.0924
     27 C         140.2655  141.4838  168.4290 C.3     1  UNL1        0.0750
     28 C         141.8602  138.4388  164.3987 C.ar    1  UNL1        0.2262
     29 C         141.7648  139.4541  165.4986 C.ar    1  UNL1        0.0722
     30 C         140.4911  139.5984  166.2776 C.ar    1  UNL1        0.0541
     31 C         139.3128  138.7274  165.9566 C.ar    1  UNL1        0.0354
     32 C         139.4083  137.7120  164.8566 C.ar    1  UNL1        0.1033
     33 N         140.6820  137.5677  164.0777 N.ar    1  UNL1       -0.2101
     34 C         144.1058  139.4351  163.5531 C.3     1  UNL1        0.2542
     35 O         143.1340  138.2944  163.6196 O.3     1  UNL1       -0.4561
@<TRIPOS>BOND
     1    34    35    1
     2    35    28    1
     3    28    29   ar
     4    29    30   ar
     5    30    20    1
     6    20    21    1
     7    22    21    1
     8    22    23    1
     9    23    24    1
    10    25    24    1
    11    25    26    1
    12    25    27    1
    13    27     1    1
    14     1     3    1
    15     3     4   ar
    16     4     5   ar
    17     5     6   ar
    18     6     7   ar
    19     6     8    1
    20     8     9    1
    21     9    10    1
    22    10    11    1
    23    11    12    1
    24    12    13   ar
    25    13    14   ar
    26    14    15   ar
    27    15    16    1
    28    15    17   ar
    29    17    18    1
    30    17    19   ar
    31    30    31   ar
    32    31    32   ar
    33    32    33   ar
    34    33    28   ar
    35    26    20    1
    36     7     3   ar
    37    19    12   ar
    38    27    22    1
    39    11     5    1
    40     1     2    1
@<TRIPOS>MOLECULE
*****
 35 40 0 0 0
SMALL
GASTEIGER

@<TRIPOS>ATOM
      1 N         142.1690  142.9526  162.2198 N.pl3   1  UNL1       -0.3033
      2 H         143.1504  142.9765  162.1462 H       1  UNL1        0.1496
      3 C         141.4834  141.7102  162.7061 C.ar    1  UNL1        0.2365
      4 N         141.3191  141.2971  164.1387 N.ar    1  UNL1       -0.1798
      5 C         140.5760  139.9943  164.1632 C.ar    1  UNL1        0.2234
      6 N         140.2810  139.6023  162.7457 N.ar    1  UNL1       -0.2192
      7 N         140.8419  140.6627  161.8452 N.ar    1  UNL1       -0.1317
      8 C         139.5398  138.3303  162.4581 C.3     1  UNL1        0.1322
      9 C         139.0936  137.4504  163.5879 C.3     1  UNL1        0.0483
     10 C         139.3886  137.8425  165.0054 C.3     1  UNL1        0.1005
     11 N         140.1298  139.1145  165.2930 N.pl3   1  UNL1       -0.2573
     12 C         140.4247  139.5065  166.7105 C.ar    1  UNL1        0.0564
     13 C         141.8412  139.5282  167.2034 C.ar    1  UNL1        0.0174
     14 C         142.1362  139.9203  168.6209 C.ar    1  UNL1        0.0332
     15 C         141.0146  140.2907  169.5455 C.ar    1  UNL1        0.1675
     16 F         141.3096  140.6828  170.9630 F       1  UNL1       -0.2018
     17 C         139.5981  140.2690  169.0526 C.ar    1  UNL1        0.1686
     18 F         138.4765  140.6395  169.9772 F       1  UNL1       -0.2018
     19 C         139.3032  139.8770  167.6351 C.ar    1  UNL1        0.0469
     20 N         142.0821  143.0735  162.2696 N.pl3   1  UNL1       -0.3072
     21 C         141.9172  143.4479  160.8265 C.3     1  UNL1        0.0924
     22 C         141.1074  144.6539  160.4523 C.3     1  UNL1        0.0378
     23 C         140.2516  145.8823  160.5447 C.3     1  UNL1        0.0035
     24 C         139.9745  146.1463  161.9951 C.3     1  UNL1        0.0035
     25 C         140.6591  145.0808  162.7992 C.3     1  UNL1        0.0378
     26 C         141.4373  143.9050  163.3386 C.3     1  UNL1        0.0924
     27 C         141.3592  144.1585  161.8457 C.3     1  UNL1        0.0750
     28 C         143.9068  139.5579  162.0232 C.ar    1  UNL1        0.2262
     29 C         143.0970  140.7638  161.6491 C.ar    1  UNL1        0.0722
     30 C         142.8919  141.8675  162.6438 C.ar    1  UNL1        0.0541
     31 C         143.4966  141.7654  164.0127 C.ar    1  UNL1        0.0354
     32 C         144.3063  140.5596  164.3869 C.ar    1  UNL1        0.1033
     33 N         144.5115  139.4558  163.3922 N.ar    1  UNL1       -0.2101
     34 C         142.9421  137.6419  160.5575 C.3     1  UNL1        0.2542
     35 O         144.1120  138.4540  161.0285 O.3     1  UNL1       -0.4561
@<TRIPOS>BOND
     1    34    35    1
     2    35    28    1
     3    28    29   ar
     4    29    30   ar
     5    30    20    1
     6    20    21    1
     7    22    21    1
     8    22    23    1
     9    23    24    1
    10    25    24    1
    11    25    26    1
    12    25    27    1
    13    27     1    1
    14     1     3    1
    15     3     4   ar
    16     4     5   ar
    17     5     6   ar
    18     6     7   ar
    19     6     8    1
    20     8     9    1
    21     9    10    1
    22    10    11    1
    23    11    12    1
    24    12    13   ar
    25    13    14   ar
    26    14    15   ar
    27    15    16    1
    28    15    17   ar
    29    17    18    1
    30    17    19   ar
    31    30    31   ar
    32    31    32   ar
    33    32    33   ar
    34    33    28   ar
    35    26    20    1
    36     7     3   ar
    37    19    12   ar
    38    27    22    1
    39    11     5    1
    40     1     2    1
@<TRIPOS>MOLECULE
*****
 35 40 0 0 0
SMALL
GASTEIGER

@<TRIPOS>ATOM
      1 N         140.6937  139.4765  166.4102 N.pl3   1  UNL1       -0.3033
      2 H         140.0938  138.8146  165.9962 H       1  UNL1        0.1496
      3 C         141.7459  140.1550  165.5841 C.ar    1  UNL1        0.2365
      4 N         141.5489  141.3756  164.7348 N.ar    1  UNL1       -0.1798
      5 C         142.8611  141.7071  164.0881 C.ar    1  UNL1        0.2234
      6 N         143.8692  140.6914  164.5379 N.ar    1  UNL1       -0.2192
      7 N         143.1799  139.7322  165.4624 N.ar    1  UNL1       -0.1317
      8 C         145.2844  140.7712  164.0474 C.3     1  UNL1        0.1322
      9 C         145.6917  141.8667  163.1072 C.3     1  UNL1        0.0483
     10 C         144.6836  142.8824  162.6575 C.3     1  UNL1        0.1005
     11 N         143.2684  142.8026  163.1480 N.pl3   1  UNL1       -0.2573
     12 C         142.2603  143.8183  162.6982 C.ar    1  UNL1        0.0564
     13 C         141.5226  144.6424  163.7114 C.ar    1  UNL1        0.0174
     14 C         140.5146  145.6581  163.2617 C.ar    1  UNL1        0.0332
     15 C         140.2443  145.8497  161.7988 C.ar    1  UNL1        0.1675
     16 F         139.2362  146.8654  161.3491 F       1  UNL1       -0.2018
     17 C         140.9819  145.0256  160.7856 C.ar    1  UNL1        0.1686
     18 F         140.7116  145.2172  159.3226 F       1  UNL1       -0.2018
     19 C         141.9900  144.0099  161.2353 C.ar    1  UNL1        0.0469
     20 N         140.7656  139.4944  166.5486 N.pl3   1  UNL1       -0.3072
     21 C         139.4183  139.8274  167.1174 C.3     1  UNL1        0.0924
     22 C         139.2799  140.1572  168.5742 C.3     1  UNL1        0.0378
     23 C         139.6044  140.4110  170.0165 C.3     1  UNL1        0.0035
     24 C         141.0804  140.2169  170.2007 C.3     1  UNL1        0.0035
     25 C         141.6681  139.8432  168.8721 C.3     1  UNL1        0.0378
     26 C         141.9747  139.4912  167.4364 C.3     1  UNL1        0.0924
     27 C         140.5553  139.8063  167.8669 C.3     1  UNL1        0.0750
     28 C         140.2760  139.6197  162.6123 C.ar    1  UNL1        0.2262
     29 C         140.1376  139.9496  164.0689 C.ar    1  UNL1        0.0722
     30 C         140.9040  139.1645  165.0918 C.ar    1  UNL1        0.0541
     31 C         141.8088  138.0495  164.6579 C.ar    1  UNL1        0.0354
     32 C         141.9472  137.7197  163.2013 C.ar    1  UNL1        0.1033
     33 N         141.1808  138.5047  162.1784 N.ar    1  UNL1       -0.2101
     34 C         139.0244  141.7866  161.9136 C.3     1  UNL1        0.2542
     35 O         139.5096  140.4048  161.5893 O.3     1  UNL1       -0.4561
@<TRIPOS>BOND
     1    34    35    1
     2    35    28    1
     3    28    29   ar
     4    29    30   ar
     5    30    20    1
     6    20    21    1
     7    22    21    1
     8    22    23    1
     9    23    24    1
    10    25    24    1
    11    25    26    1
    12    25    27    1
    13    27     1    1
    14     1     3    1
    15     3     4   ar
    16     4     5   ar
    17     5     6   ar
    18     6     7   ar
    19     6     8    1
    20     8     9    1
    21     9    10    1
    22    10    11    1
    23    11    12    1
    24    12    13   ar
    25    13    14   ar
    26    14    15   ar
    27    15    16    1
    28    15    17   ar
    29    17    18    1
    30    17    19   ar
    31    30    31   ar
    32    31    32   ar
    33    32    33   ar
    34    33    28   ar
    35    26    20    1
    36     7     3   ar
    37    19    12   ar
    38    27    22    1
    39    11     5    1
    40     1     2    1
@<TRIPOS>MOLECULE
*****
 35 40 0 0 0
SMALL
GASTEIGER

@<TRIPOS>ATOM
      1 N         141.9707  139.5508  166.6367 N.pl3   1  UNL1       -0.3033
      2 H         142.3156  138.6489  166.4446 H       1  UNL1        0.1496
      3 C         142.2313  140.6736  165.6768 C.ar    1  UNL1        0.2365
      4 N         141.5322  140.8950  164.3683 N.ar    1  UNL1       -0.1798
      5 C         142.1055  142.1304  163.7396 C.ar    1  UNL1        0.2234
      6 N         143.1591  142.6724  164.6596 N.ar    1  UNL1       -0.2192
      7 N         143.2368  141.7720  165.8568 N.ar    1  UNL1       -0.1317
      8 C         143.9115  143.9157  164.2882 C.3     1  UNL1        0.1322
      9 C         143.6104  144.6170  162.9970 C.3     1  UNL1        0.0483
     10 C         142.5569  144.0750  162.0770 C.3     1  UNL1        0.1005
     11 N         141.8044  142.8317  162.4483 N.pl3   1  UNL1       -0.2573
     12 C         140.7509  142.2897  161.5284 C.ar    1  UNL1        0.0564
     13 C         139.4280  142.9866  161.4099 C.ar    1  UNL1        0.0174
     14 C         138.3745  142.4446  160.4899 C.ar    1  UNL1        0.0332
     15 C         138.6439  141.2056  159.6885 C.ar    1  UNL1        0.1675
     16 F         137.5904  140.6636  158.7685 F       1  UNL1       -0.2018
     17 C         139.9668  140.5087  159.8069 C.ar    1  UNL1        0.1686
     18 F         140.2363  139.2697  159.0055 F       1  UNL1       -0.2018
     19 C         141.0203  141.0507  160.7269 C.ar    1  UNL1        0.0469
     20 N         141.8321  139.5890  166.6998 N.pl3   1  UNL1       -0.3072
     21 C         142.4969  139.4694  168.0390 C.3     1  UNL1        0.0924
     22 C         141.7110  139.7208  169.2917 C.3     1  UNL1        0.0378
     23 C         140.5860  140.0473  170.2286 C.3     1  UNL1        0.0035
     24 C         139.3645  140.3305  169.4054 C.3     1  UNL1        0.0035
     25 C         139.7345  140.1790  167.9596 C.3     1  UNL1        0.0378
     26 C         140.3812  139.9599  166.6131 C.3     1  UNL1        0.0924
     27 C         141.1847  139.8021  167.8893 C.3     1  UNL1        0.0750
     28 C         142.7341  138.4782  162.9981 C.ar    1  UNL1        0.2262
     29 C         141.9482  138.7295  164.2507 C.ar    1  UNL1        0.0722
     30 C         142.6180  139.3376  165.4471 C.ar    1  UNL1        0.0541
     31 C         144.0739  139.6945  165.3909 C.ar    1  UNL1        0.0354
     32 C         144.8599  139.4431  164.1383 C.ar    1  UNL1        0.1033
     33 N         144.1900  138.8350  162.9419 N.ar    1  UNL1       -0.2101
     34 C         142.8476  137.6288  160.5454 C.3     1  UNL1        0.2542
     35 O         142.0642  137.8700  161.8016 O.3     1  UNL1       -0.4561
@<TRIPOS>BOND
     1    34    35    1
     2    35    28    1
     3    28    29   ar
     4    29    30   ar
     5    30    20    1
     6    20    21    1
     7    22    21    1
     8    22    23    1
     9    23    24    1
    10    25    24    1
    11    25    26    1
    12    25    27    1
    13    27     1    1
    14     1     3    1
    15     3     4   ar
    16     4     5   ar
    17     5     6   ar
    18     6     7   ar
    19     6     8    1
    20     8     9    1
    21     9    10    1
    22    10    11    1
    23    11    12    1
    24    12    13   ar
    25    13    14   ar
    26    14    15   ar
    27    15    16    1
    28    15    17   ar
    29    17    18    1
    30    17    19   ar
    31    30    31   ar
    32    31    32   ar
    33    32    33   ar
    34    33    28   ar
    35    26    20    1
    36     7     3   ar
    37    19    12   ar
    38    27    22    1
    39    11     5    1
    40     1     2    1
