@<TRIPOS>MOLECULE
*****
 45 51 0 0 0
SMALL
GASTEIGER

@<TRIPOS>ATOM
      1 C         141.7957  138.2804  164.1293 C.3     1  UNL1        0.0932
      2 C         142.1585  138.5265  162.6948 C.3     1  UNL1        0.0286
      3 C         143.4131  139.2759  162.3564 C.3     1  UNL1        0.0193
      4 C         144.3049  139.7791  163.4526 C.3     1  UNL1        0.0700
      5 C         143.9421  139.5329  164.8871 C.3     1  UNL1        0.0193
      6 C         142.6875  138.7836  165.2255 C.3     1  UNL1        0.0286
      7 C         143.6278  139.3735  163.6872 C.3     1  UNL1        0.1562
      8 O         142.4934  138.6959  163.9931 O.3     1  UNL1       -0.3572
      9 N         145.5595  140.5284  163.1143 N.3     1  UNL1       -0.2926
     10 H         145.7083  140.4159  162.1115 H       1  UNL1        0.1236
     11 C         145.6574  141.9968  163.4045 C.3     1  UNL1        0.1152
     12 C         144.4543  142.8766  163.2354 C.ar    1  UNL1        0.0765
     13 C         143.7830  143.4686  164.4391 C.ar    1  UNL1        0.0193
     14 C         142.5800  144.3484  164.2699 C.ar    1  UNL1        0.0411
     15 C         142.0483  144.6362  162.8972 C.ar    1  UNL1        0.1708
     16 C         142.7196  144.0441  161.6935 C.ar    1  UNL1        0.1682
     17 N         143.9226  143.1644  161.8627 N.ar    1  UNL1       -0.2304
     18 N         142.1879  144.3319  160.3208 N.am    1  UNL1       -0.2639
     19 C         140.9848  145.2117  160.1516 C.2     1  UNL1        0.2718
     20 O         140.4531  145.4994  158.7789 O.2     1  UNL1       -0.2707
     21 C         140.3135  145.8038  161.3553 C.3     1  UNL1        0.2898
     22 O         140.8452  145.5160  162.7281 O.3     1  UNL1       -0.4628
     23 H         142.6285  143.9433  159.5308 H       1  UNL1        0.1565
     24 C         140.5411  137.5310  164.4677 C.3     1  UNL1        0.0320
     25 C         139.2931  138.2816  164.8273 C.3     1  UNL1        0.0327
     26 C         139.5356  142.6513  165.8744 C.ar    1  UNL1        0.2249
     27 C         138.9816  143.6799  164.9336 C.ar    1  UNL1        0.0593
     28 C         138.3467  143.2518  163.6437 C.ar    1  UNL1        0.0254
     29 C         138.2659  141.7952  163.2947 C.ar    1  UNL1        0.0990
     30 N         137.6311  141.3672  162.0048 N.ar    1  UNL1       -0.2400
     31 C         137.5503  139.9106  161.6558 C.ar    1  UNL1        0.1281
     32 C         138.1043  138.8820  162.5967 C.ar    1  UNL1        0.1566
     33 F         138.0235  137.4254  162.2476 F       1  UNL1       -0.2028
     34 C         138.7391  139.3101  163.8865 C.ar    1  UNL1        0.0261
     35 C         138.8199  140.7667  164.2355 C.ar    1  UNL1        0.1002
     36 N         139.4547  141.1947  165.5253 N.ar    1  UNL1       -0.2104
     37 O         140.1704  143.0794  167.1643 O.3     1  UNL1       -0.4596
     38 C         141.1394  142.1708  167.8610 C.3     1  UNL1        0.2174
     39 C         141.7464  142.5833  169.1693 C.3     1  UNL1        0.1297
     40 C         142.7853  142.8804  170.2097 C.3     1  UNL1        0.0149
     41 C         143.2004  142.3946  168.8527 C.3     1  UNL1        0.0149
     42 C         140.5032  142.9151  169.9401 C.2     1  UNL1        0.3196
     43 O         140.1444  144.3474  170.2040 O.2     1  UNL1       -0.2500
     44 C         140.1997  140.4657  170.7515 C.3     1  UNL1        0.2556
     45 O         139.6188  141.8148  170.4470 O.3     1  UNL1       -0.4443
@<TRIPOS>BOND
     1    44    45    1
     2    45    42    1
     3    42    43    2
     4    42    39    1
     5    39    38    1
     6    38    37    1
     7    37    26    1
     8    26    27   ar
     9    27    28   ar
    10    28    29   ar
    11    29    30   ar
    12    30    31   ar
    13    31    32   ar
    14    32    33    1
    15    32    34   ar
    16    34    25    1
    17    25    24    1
    18    24     1    1
    19     1     2    1
    20     2     3    1
    21     3     4    1
    22     4     9    1
    23     9    11    1
    24    11    12    1
    25    12    13   ar
    26    13    14   ar
    27    14    15   ar
    28    15    16   ar
    29    16    17   ar
    30    16    18    1
    31    18    19   am
    32    19    20    2
    33    19    21    1
    34    21    22    1
    35     4     5    1
    36     5     6    1
    37     4     7    1
    38     7     8    1
    39    34    35   ar
    40    35    36   ar
    41    39    40    1
    42    40    41    1
    43    41    39    1
    44    36    26   ar
    45    35    29   ar
    46     6     1    1
    47     8     1    1
    48    17    12   ar
    49    22    15    1
    50     9    10    1
    51    18    23    1
@<TRIPOS>MOLECULE
*****
 45 51 0 0 0
SMALL
GASTEIGER

@<TRIPOS>ATOM
      1 C         137.7908  142.7316  163.5492 C.3     1  UNL1        0.0932
      2 C         137.8087  142.5665  162.0584 C.3     1  UNL1        0.0286
      3 C         137.8829  141.1945  161.4566 C.3     1  UNL1        0.0193
      4 C         137.9393  139.9876  162.3456 C.3     1  UNL1        0.0700
      5 C         137.9215  140.1528  163.8365 C.3     1  UNL1        0.0193
      6 C         137.8472  141.5248  164.4382 C.3     1  UNL1        0.0286
      7 C         137.8994  140.7191  162.7216 C.3     1  UNL1        0.1562
      8 O         137.8322  141.9597  163.2657 O.3     1  UNL1       -0.3572
      9 N         138.0136  138.6156  161.7439 N.3     1  UNL1       -0.2926
     10 H         137.2778  138.5628  161.0395 H       1  UNL1        0.1236
     11 C         139.2789  138.1537  161.0840 C.3     1  UNL1        0.1152
     12 C         140.6054  138.4367  161.7245 C.ar    1  UNL1        0.0765
     13 C         141.7113  139.0514  160.9188 C.ar    1  UNL1        0.0193
     14 C         143.0378  139.3344  161.5593 C.ar    1  UNL1        0.0411
     15 C         143.2584  139.0027  163.0055 C.ar    1  UNL1        0.1708
     16 C         142.1525  138.3880  163.8111 C.ar    1  UNL1        0.1682
     17 N         140.8260  138.1050  163.1706 N.ar    1  UNL1       -0.2304
     18 N         142.3731  138.0564  165.2572 N.am    1  UNL1       -0.2639
     19 C         143.6996  138.3393  165.8978 C.2     1  UNL1        0.2718
     20 O         143.9202  138.0077  167.3439 O.2     1  UNL1       -0.2707
     21 C         144.8056  138.9540  165.0921 C.3     1  UNL1        0.2898
     22 O         144.5850  139.2857  163.6460 O.3     1  UNL1       -0.4628
     23 H         141.6472  137.6529  165.7860 H       1  UNL1        0.1565
     24 C         137.7165  144.1037  164.1510 C.3     1  UNL1        0.0320
     25 C         138.9616  144.7679  164.6597 C.3     1  UNL1        0.0327
     26 C         142.0945  142.3024  166.7469 C.ar    1  UNL1        0.2249
     27 C         143.4112  142.0404  166.0779 C.ar    1  UNL1        0.0593
     28 C         143.6836  142.6002  164.7133 C.ar    1  UNL1        0.0254
     29 C         142.6393  143.4220  164.0175 C.ar    1  UNL1        0.0990
     30 N         142.9118  143.9819  162.6528 N.ar    1  UNL1       -0.2400
     31 C         141.8675  144.8037  161.9571 C.ar    1  UNL1        0.1281
     32 C         140.5507  145.0657  162.6261 C.ar    1  UNL1        0.1566
     33 F         139.5064  145.8875  161.9304 F       1  UNL1       -0.2028
     34 C         140.2783  144.5059  163.9908 C.ar    1  UNL1        0.0261
     35 C         141.3226  143.6840  164.6865 C.ar    1  UNL1        0.1002
     36 N         141.0502  143.1242  166.0511 N.ar    1  UNL1       -0.2104
     37 O         141.8220  141.7426  168.1116 O.3     1  UNL1       -0.4596
     38 C         141.3641  140.3222  168.2619 C.3     1  UNL1        0.2174
     39 C         139.9009  140.0147  168.3834 C.3     1  UNL1        0.1297
     40 C         138.5114  139.5990  168.0006 C.3     1  UNL1        0.0149
     41 C         139.6048  139.5961  166.9738 C.3     1  UNL1        0.0149
     42 C         139.6890  140.3267  169.8352 C.2     1  UNL1        0.3196
     43 O         140.1780  139.3745  170.8860 O.2     1  UNL1       -0.2500
     44 C         139.7862  142.8019  170.6187 C.3     1  UNL1        0.2556
     45 O         138.9881  141.5907  170.2362 O.3     1  UNL1       -0.4443
@<TRIPOS>BOND
     1    44    45    1
     2    45    42    1
     3    42    43    2
     4    42    39    1
     5    39    38    1
     6    38    37    1
     7    37    26    1
     8    26    27   ar
     9    27    28   ar
    10    28    29   ar
    11    29    30   ar
    12    30    31   ar
    13    31    32   ar
    14    32    33    1
    15    32    34   ar
    16    34    25    1
    17    25    24    1
    18    24     1    1
    19     1     2    1
    20     2     3    1
    21     3     4    1
    22     4     9    1
    23     9    11    1
    24    11    12    1
    25    12    13   ar
    26    13    14   ar
    27    14    15   ar
    28    15    16   ar
    29    16    17   ar
    30    16    18    1
    31    18    19   am
    32    19    20    2
    33    19    21    1
    34    21    22    1
    35     4     5    1
    36     5     6    1
    37     4     7    1
    38     7     8    1
    39    34    35   ar
    40    35    36   ar
    41    39    40    1
    42    40    41    1
    43    41    39    1
    44    36    26   ar
    45    35    29   ar
    46     6     1    1
    47     8     1    1
    48    17    12   ar
    49    22    15    1
    50     9    10    1
    51    18    23    1
@<TRIPOS>MOLECULE
*****
 45 51 0 0 0
SMALL
GASTEIGER

@<TRIPOS>ATOM
      1 C         137.9552  142.8686  163.6691 C.3     1  UNL1        0.0932
      2 C         138.0319  141.6745  164.5735 C.3     1  UNL1        0.0286
      3 C         137.9903  140.2913  163.9946 C.3     1  UNL1        0.0193
      4 C         137.8720  140.1023  162.5113 C.3     1  UNL1        0.0700
      5 C         137.7953  141.2966  161.6069 C.3     1  UNL1        0.0193
      6 C         137.8369  142.6797  162.1858 C.3     1  UNL1        0.0286
      7 C         137.8910  140.8797  162.7821 C.3     1  UNL1        0.1562
      8 O         137.9286  142.1303  163.3056 O.3     1  UNL1       -0.3572
      9 N         137.8303  138.7192  161.9324 N.3     1  UNL1       -0.2926
     10 H         137.0942  138.7175  161.2264 H       1  UNL1        0.1236
     11 C         139.0530  138.1403  161.2844 C.3     1  UNL1        0.1152
     12 C         140.4086  138.4048  161.8697 C.ar    1  UNL1        0.0765
     13 C         141.5031  138.9589  161.0066 C.ar    1  UNL1        0.0193
     14 C         142.8586  139.2234  161.5919 C.ar    1  UNL1        0.0411
     15 C         143.1196  138.9338  163.0403 C.ar    1  UNL1        0.1708
     16 C         142.0251  138.3797  163.9035 C.ar    1  UNL1        0.1682
     17 N         140.6696  138.1152  163.3182 N.ar    1  UNL1       -0.2304
     18 N         142.2861  138.0902  165.3519 N.am    1  UNL1       -0.2639
     19 C         143.6416  138.3547  165.9372 C.2     1  UNL1        0.2718
     20 O         143.9026  138.0651  167.3857 O.2     1  UNL1       -0.2707
     21 C         144.7362  138.9088  165.0741 C.3     1  UNL1        0.2898
     22 O         144.4752  139.1983  163.6256 O.3     1  UNL1       -0.4628
     23 H         141.5677  137.7265  165.9184 H       1  UNL1        0.1565
     24 C         137.9968  144.2519  164.2480 C.3     1  UNL1        0.0320
     25 C         139.3101  144.9587  164.4081 C.3     1  UNL1        0.0327
     26 C         143.0441  142.6111  165.3007 C.ar    1  UNL1        0.2249
     27 C         144.1069  142.4654  164.2524 C.ar    1  UNL1        0.0593
     28 C         143.9251  143.1022  162.9065 C.ar    1  UNL1        0.0254
     29 C         142.6805  143.8847  162.6090 C.ar    1  UNL1        0.0990
     30 N         142.4987  144.5215  161.2630 N.ar    1  UNL1       -0.2400
     31 C         141.2541  145.3040  160.9655 C.ar    1  UNL1        0.1281
     32 C         140.1912  145.4497  162.0139 C.ar    1  UNL1        0.1566
     33 F         138.9465  146.2322  161.7164 F       1  UNL1       -0.2028
     34 C         140.3730  144.8129  163.3598 C.ar    1  UNL1        0.0261
     35 C         141.6176  144.0304  163.6573 C.ar    1  UNL1        0.1002
     36 N         141.7994  143.3936  165.0032 N.ar    1  UNL1       -0.2104
     37 O         143.2259  141.9743  166.6466 O.3     1  UNL1       -0.4596
     38 C         142.0301  141.6663  167.4983 C.3     1  UNL1        0.2174
     39 C         141.8028  142.4225  168.7737 C.3     1  UNL1        0.1297
     40 C         141.1475  143.3153  169.7853 C.3     1  UNL1        0.0149
     41 C         140.4916  143.0786  168.4573 C.3     1  UNL1        0.0149
     42 C         143.0352  142.0289  169.5329 C.2     1  UNL1        0.3196
     43 O         143.9036  143.0839  170.1517 O.2     1  UNL1       -0.2500
     44 C         143.0055  139.8247  170.9078 C.3     1  UNL1        0.2556
     45 O         143.3991  140.5806  169.6733 O.3     1  UNL1       -0.4443
@<TRIPOS>BOND
     1    44    45    1
     2    45    42    1
     3    42    43    2
     4    42    39    1
     5    39    38    1
     6    38    37    1
     7    37    26    1
     8    26    27   ar
     9    27    28   ar
    10    28    29   ar
    11    29    30   ar
    12    30    31   ar
    13    31    32   ar
    14    32    33    1
    15    32    34   ar
    16    34    25    1
    17    25    24    1
    18    24     1    1
    19     1     2    1
    20     2     3    1
    21     3     4    1
    22     4     9    1
    23     9    11    1
    24    11    12    1
    25    12    13   ar
    26    13    14   ar
    27    14    15   ar
    28    15    16   ar
    29    16    17   ar
    30    16    18    1
    31    18    19   am
    32    19    20    2
    33    19    21    1
    34    21    22    1
    35     4     5    1
    36     5     6    1
    37     4     7    1
    38     7     8    1
    39    34    35   ar
    40    35    36   ar
    41    39    40    1
    42    40    41    1
    43    41    39    1
    44    36    26   ar
    45    35    29   ar
    46     6     1    1
    47     8     1    1
    48    17    12   ar
    49    22    15    1
    50     9    10    1
    51    18    23    1
@<TRIPOS>MOLECULE
*****
 45 51 0 0 0
SMALL
GASTEIGER

@<TRIPOS>ATOM
      1 C         143.6180  142.2286  163.5593 C.3     1  UNL1        0.0932
      2 C         142.8716  142.8640  164.6946 C.3     1  UNL1        0.0286
      3 C         142.0630  144.1053  164.4591 C.3     1  UNL1        0.0193
      4 C         142.0009  144.7112  163.0883 C.3     1  UNL1        0.0700
      5 C         142.7474  144.0757  161.9530 C.3     1  UNL1        0.0193
      6 C         143.5560  142.8344  162.1885 C.3     1  UNL1        0.0286
      7 C         142.4572  144.0305  163.1686 C.3     1  UNL1        0.1562
      8 O         143.1883  142.9081  163.3816 O.3     1  UNL1       -0.3572
      9 N         141.1924  145.9524  162.8528 N.3     1  UNL1       -0.2926
     10 H         141.6486  146.4619  162.0961 H       1  UNL1        0.1236
     11 C         139.7412  145.8444  162.4889 C.3     1  UNL1        0.1152
     12 C         139.1154  144.4952  162.2934 C.ar    1  UNL1        0.0765
     13 C         138.3539  143.8521  163.4143 C.ar    1  UNL1        0.0193
     14 C         137.7282  142.5030  163.2187 C.ar    1  UNL1        0.0411
     15 C         137.8640  141.7970  161.9022 C.ar    1  UNL1        0.1708
     16 C         138.6255  142.4401  160.7813 C.ar    1  UNL1        0.1682
     17 N         139.2512  143.7892  160.9769 N.ar    1  UNL1       -0.2304
     18 N         138.7612  141.7341  159.4648 N.am    1  UNL1       -0.2639
     19 C         138.1355  140.3850  159.2692 C.2     1  UNL1        0.2718
     20 O         138.2713  139.6790  157.9527 O.2     1  UNL1       -0.2707
     21 C         137.3739  139.7418  160.3901 C.3     1  UNL1        0.2898
     22 O         137.2382  140.4478  161.7066 O.3     1  UNL1       -0.4628
     23 H         139.2611  142.1562  158.7291 H       1  UNL1        0.1565
     24 C         144.4266  140.9873  163.7947 C.3     1  UNL1        0.0320
     25 C         143.7723  139.7622  164.3613 C.3     1  UNL1        0.0327
     26 C         139.6034  139.5501  166.0423 C.ar    1  UNL1        0.2249
     27 C         138.5191  138.8552  165.2733 C.ar    1  UNL1        0.0593
     28 C         138.8245  138.2310  163.9440 C.ar    1  UNL1        0.0254
     29 C         140.2141  138.3018  163.3836 C.ar    1  UNL1        0.0990
     30 N         140.5194  137.6776  162.0542 N.ar    1  UNL1       -0.2400
     31 C         141.9090  137.7483  161.4939 C.ar    1  UNL1        0.1281
     32 C         142.9933  138.4432  162.2630 C.ar    1  UNL1        0.1566
     33 F         144.3829  138.5139  161.7027 F       1  UNL1       -0.2028
     34 C         142.6880  139.0673  163.5923 C.ar    1  UNL1        0.0261
     35 C         141.2984  138.9966  164.1527 C.ar    1  UNL1        0.1002
     36 N         140.9930  139.6208  165.4820 N.ar    1  UNL1       -0.2104
     37 O         139.2981  140.1743  167.3717 O.3     1  UNL1       -0.4596
     38 C         140.2050  141.2303  167.9304 C.3     1  UNL1        0.2174
     39 C         140.0455  141.6803  169.3524 C.3     1  UNL1        0.1297
     40 C         140.0067  142.5842  170.5488 C.3     1  UNL1        0.0149
     41 C         140.3375  143.1434  169.1969 C.3     1  UNL1        0.0149
     42 C         139.6983  140.3735  170.0017 C.2     1  UNL1        0.3196
     43 O         138.2795  140.0845  170.3935 O.2     1  UNL1       -0.2500
     44 C         142.2137  139.7589  170.2128 C.3     1  UNL1        0.2556
     45 O         140.7696  139.3558  170.2592 O.3     1  UNL1       -0.4443
@<TRIPOS>BOND
     1    44    45    1
     2    45    42    1
     3    42    43    2
     4    42    39    1
     5    39    38    1
     6    38    37    1
     7    37    26    1
     8    26    27   ar
     9    27    28   ar
    10    28    29   ar
    11    29    30   ar
    12    30    31   ar
    13    31    32   ar
    14    32    33    1
    15    32    34   ar
    16    34    25    1
    17    25    24    1
    18    24     1    1
    19     1     2    1
    20     2     3    1
    21     3     4    1
    22     4     9    1
    23     9    11    1
    24    11    12    1
    25    12    13   ar
    26    13    14   ar
    27    14    15   ar
    28    15    16   ar
    29    16    17   ar
    30    16    18    1
    31    18    19   am
    32    19    20    2
    33    19    21    1
    34    21    22    1
    35     4     5    1
    36     5     6    1
    37     4     7    1
    38     7     8    1
    39    34    35   ar
    40    35    36   ar
    41    39    40    1
    42    40    41    1
    43    41    39    1
    44    36    26   ar
    45    35    29   ar
    46     6     1    1
    47     8     1    1
    48    17    12   ar
    49    22    15    1
    50     9    10    1
    51    18    23    1
@<TRIPOS>MOLECULE
*****
 45 51 0 0 0
SMALL
GASTEIGER

@<TRIPOS>ATOM
      1 C         137.9004  142.7136  163.1084 C.3     1  UNL1        0.0932
      2 C         138.1598  142.1986  161.7236 C.3     1  UNL1        0.0286
      3 C         138.3007  140.7243  161.4858 C.3     1  UNL1        0.0193
      4 C         138.1822  139.7649  162.6328 C.3     1  UNL1        0.0700
      5 C         137.9228  140.2799  164.0176 C.3     1  UNL1        0.0193
      6 C         137.7820  141.7542  164.2554 C.3     1  UNL1        0.0286
      7 C         138.0977  140.5641  162.8123 C.3     1  UNL1        0.1562
      8 O         137.9703  141.8972  163.0273 O.3     1  UNL1       -0.3572
      9 N         138.3231  138.2906  162.3951 N.3     1  UNL1       -0.2926
     10 H         138.4376  138.1641  161.3895 H       1  UNL1        0.1236
     11 C         139.4317  137.5269  163.0566 C.3     1  UNL1        0.1152
     12 C         140.7538  138.1898  163.3070 C.ar    1  UNL1        0.0765
     13 C         141.5178  137.8892  164.5623 C.ar    1  UNL1        0.0193
     14 C         142.8398  138.5521  164.8126 C.ar    1  UNL1        0.0411
     15 C         143.3979  139.5157  163.8076 C.ar    1  UNL1        0.1708
     16 C         142.6339  139.8163  162.5523 C.ar    1  UNL1        0.1682
     17 N         141.3119  139.1534  162.3020 N.ar    1  UNL1       -0.2304
     18 N         143.1920  140.7799  161.5473 N.am    1  UNL1       -0.2639
     19 C         144.5140  141.4429  161.7976 C.2     1  UNL1        0.2718
     20 O         145.0721  142.4065  160.7926 O.2     1  UNL1       -0.2707
     21 C         145.2780  141.1422  163.0530 C.3     1  UNL1        0.2898
     22 O         144.7200  140.1786  164.0580 O.3     1  UNL1       -0.4628
     23 H         142.6906  140.9773  160.7233 H       1  UNL1        0.1565
     24 C         137.7595  144.1879  163.3462 C.3     1  UNL1        0.0320
     25 C         138.7728  144.9131  164.1812 C.3     1  UNL1        0.0327
     26 C         141.0836  142.2984  167.0227 C.ar    1  UNL1        0.2249
     27 C         142.5477  142.0600  166.8004 C.ar    1  UNL1        0.0593
     28 C         143.2415  142.6931  165.6309 C.ar    1  UNL1        0.0254
     29 C         142.4713  143.5647  164.6838 C.ar    1  UNL1        0.0990
     30 N         143.1652  144.1978  163.5143 N.ar    1  UNL1       -0.2400
     31 C         142.3950  145.0694  162.5671 C.ar    1  UNL1        0.1281
     32 C         140.9308  145.3078  162.7895 C.ar    1  UNL1        0.1566
     33 F         140.1605  146.1793  161.8424 F       1  UNL1       -0.2028
     34 C         140.2369  144.6747  163.9589 C.ar    1  UNL1        0.0261
     35 C         141.0072  143.8031  164.9061 C.ar    1  UNL1        0.1002
     36 N         140.3133  143.1700  166.0755 N.ar    1  UNL1       -0.2104
     37 O         140.3896  141.6653  168.1922 O.3     1  UNL1       -0.4596
     38 C         140.5113  140.1888  168.4271 C.3     1  UNL1        0.2174
     39 C         141.4268  139.6726  169.4973 C.3     1  UNL1        0.1297
     40 C         142.6037  139.0036  170.1435 C.3     1  UNL1        0.0149
     41 C         142.4972  139.0536  168.6481 C.3     1  UNL1        0.0149
     42 C         140.6744  140.1123  170.7181 C.2     1  UNL1        0.3196
     43 O         139.2945  139.5850  170.9790 O.2     1  UNL1       -0.2500
     44 C         141.9180  142.3485  171.1687 C.3     1  UNL1        0.2556
     45 O         141.3016  141.0793  171.6780 O.3     1  UNL1       -0.4443
@<TRIPOS>BOND
     1    44    45    1
     2    45    42    1
     3    42    43    2
     4    42    39    1
     5    39    38    1
     6    38    37    1
     7    37    26    1
     8    26    27   ar
     9    27    28   ar
    10    28    29   ar
    11    29    30   ar
    12    30    31   ar
    13    31    32   ar
    14    32    33    1
    15    32    34   ar
    16    34    25    1
    17    25    24    1
    18    24     1    1
    19     1     2    1
    20     2     3    1
    21     3     4    1
    22     4     9    1
    23     9    11    1
    24    11    12    1
    25    12    13   ar
    26    13    14   ar
    27    14    15   ar
    28    15    16   ar
    29    16    17   ar
    30    16    18    1
    31    18    19   am
    32    19    20    2
    33    19    21    1
    34    21    22    1
    35     4     5    1
    36     5     6    1
    37     4     7    1
    38     7     8    1
    39    34    35   ar
    40    35    36   ar
    41    39    40    1
    42    40    41    1
    43    41    39    1
    44    36    26   ar
    45    35    29   ar
    46     6     1    1
    47     8     1    1
    48    17    12   ar
    49    22    15    1
    50     9    10    1
    51    18    23    1
@<TRIPOS>MOLECULE
*****
 45 51 0 0 0
SMALL
GASTEIGER

@<TRIPOS>ATOM
      1 C         138.1971  140.3079  164.3434 C.3     1  UNL1        0.0932
      2 C         137.7599  140.4650  162.9172 C.3     1  UNL1        0.0286
      3 C         137.5898  141.8355  162.3315 C.3     1  UNL1        0.0193
      4 C         137.8570  143.0488  163.1720 C.3     1  UNL1        0.0700
      5 C         138.2943  142.8916  164.5983 C.3     1  UNL1        0.0193
      6 C         138.4644  141.5213  165.1839 C.3     1  UNL1        0.0286
      7 C         137.9639  142.3185  163.5370 C.3     1  UNL1        0.1562
      8 O         138.1176  141.0793  164.0665 O.3     1  UNL1       -0.3572
      9 N         137.6869  144.4192  162.5864 N.3     1  UNL1       -0.2926
     10 H         136.9404  144.8736  163.1123 H       1  UNL1        0.1236
     11 C         138.8437  145.3738  162.5635 C.3     1  UNL1        0.1152
     12 C         140.2351  144.8609  162.3376 C.ar    1  UNL1        0.0765
     13 C         141.3040  145.1176  163.3582 C.ar    1  UNL1        0.0193
     14 C         142.6953  144.6047  163.1323 C.ar    1  UNL1        0.0411
     15 C         143.0178  143.8352  161.8858 C.ar    1  UNL1        0.1708
     16 C         141.9489  143.5784  160.8652 C.ar    1  UNL1        0.1682
     17 N         140.5576  144.0913  161.0911 N.ar    1  UNL1       -0.2304
     18 N         142.2714  142.8088  159.6187 N.am    1  UNL1       -0.2639
     19 C         143.6627  142.2960  159.3928 C.2     1  UNL1        0.2718
     20 O         143.9852  141.5264  158.1463 O.2     1  UNL1       -0.2707
     21 C         144.7317  142.5527  160.4134 C.3     1  UNL1        0.2898
     22 O         144.4092  143.3223  161.6599 O.3     1  UNL1       -0.4628
     23 H         141.5698  142.6404  158.9489 H       1  UNL1        0.1565
     24 C         138.3672  138.9375  164.9292 C.3     1  UNL1        0.0320
     25 C         139.5745  138.1179  164.5817 C.3     1  UNL1        0.0327
     26 C         142.6974  140.7532  166.4665 C.ar    1  UNL1        0.2249
     27 C         143.7880  141.3445  165.6234 C.ar    1  UNL1        0.0593
     28 C         143.8376  141.0574  164.1520 C.ar    1  UNL1        0.0254
     29 C         142.7967  140.1789  163.5237 C.ar    1  UNL1        0.0990
     30 N         142.8463  139.8918  162.0522 N.ar    1  UNL1       -0.2400
     31 C         141.8054  139.0134  161.4239 C.ar    1  UNL1        0.1281
     32 C         140.7147  138.4221  162.2671 C.ar    1  UNL1        0.1566
     33 F         139.6737  137.5437  161.6389 F       1  UNL1       -0.2028
     34 C         140.6651  138.7092  163.7385 C.ar    1  UNL1        0.0261
     35 C         141.7061  139.5876  164.3668 C.ar    1  UNL1        0.1002
     36 N         141.6565  139.8747  165.8382 N.ar    1  UNL1       -0.2104
     37 O         142.6478  141.0403  167.9380 O.3     1  UNL1       -0.4596
     38 C         142.6662  142.4583  168.4265 C.3     1  UNL1        0.2174
     39 C         141.5638  142.9614  169.3106 C.3     1  UNL1        0.1297
     40 C         140.2214  143.4811  169.7325 C.3     1  UNL1        0.0149
     41 C         140.4901  143.1839  168.2870 C.3     1  UNL1        0.0149
     42 C         142.2547  142.9136  170.6411 C.2     1  UNL1        0.3196
     43 O         143.3764  143.8641  170.9383 O.2     1  UNL1       -0.2500
     44 C         141.6643  140.4712  171.3016 C.3     1  UNL1        0.2556
     45 O         141.8240  141.9153  171.6745 O.3     1  UNL1       -0.4443
@<TRIPOS>BOND
     1    44    45    1
     2    45    42    1
     3    42    43    2
     4    42    39    1
     5    39    38    1
     6    38    37    1
     7    37    26    1
     8    26    27   ar
     9    27    28   ar
    10    28    29   ar
    11    29    30   ar
    12    30    31   ar
    13    31    32   ar
    14    32    33    1
    15    32    34   ar
    16    34    25    1
    17    25    24    1
    18    24     1    1
    19     1     2    1
    20     2     3    1
    21     3     4    1
    22     4     9    1
    23     9    11    1
    24    11    12    1
    25    12    13   ar
    26    13    14   ar
    27    14    15   ar
    28    15    16   ar
    29    16    17   ar
    30    16    18    1
    31    18    19   am
    32    19    20    2
    33    19    21    1
    34    21    22    1
    35     4     5    1
    36     5     6    1
    37     4     7    1
    38     7     8    1
    39    34    35   ar
    40    35    36   ar
    41    39    40    1
    42    40    41    1
    43    41    39    1
    44    36    26   ar
    45    35    29   ar
    46     6     1    1
    47     8     1    1
    48    17    12   ar
    49    22    15    1
    50     9    10    1
    51    18    23    1
@<TRIPOS>MOLECULE
*****
 45 51 0 0 0
SMALL
GASTEIGER

@<TRIPOS>ATOM
      1 C         137.8041  142.8314  163.0335 C.3     1  UNL1        0.0932
      2 C         137.8890  142.6235  161.5504 C.3     1  UNL1        0.0286
      3 C         137.9354  141.2330  160.9895 C.3     1  UNL1        0.0193
      4 C         137.8968  140.0506  161.9116 C.3     1  UNL1        0.0700
      5 C         137.8119  140.2586  163.3947 C.3     1  UNL1        0.0193
      6 C         137.7655  141.6490  163.9556 C.3     1  UNL1        0.0286
      7 C         137.8690  140.7935  162.2657 C.3     1  UNL1        0.1562
      8 O         137.8271  142.0507  162.7729 O.3     1  UNL1       -0.3572
      9 N         137.9432  138.6602  161.3507 N.3     1  UNL1       -0.2926
     10 H         137.3949  138.6712  160.4907 H       1  UNL1        0.1236
     11 C         139.2626  138.0305  161.0151 C.3     1  UNL1        0.1152
     12 C         140.4352  138.2116  161.9329 C.ar    1  UNL1        0.0765
     13 C         140.5396  137.3946  163.1865 C.ar    1  UNL1        0.0193
     14 C         141.7121  137.5757  164.1042 C.ar    1  UNL1        0.0411
     15 C         142.7802  138.5739  163.7684 C.ar    1  UNL1        0.1708
     16 C         142.6758  139.3909  162.5149 C.ar    1  UNL1        0.1682
     17 N         141.5033  139.2098  161.5971 N.ar    1  UNL1       -0.2304
     18 N         143.7439  140.3891  162.1790 N.am    1  UNL1       -0.2639
     19 C         144.9165  140.5702  163.0968 C.2     1  UNL1        0.2718
     20 O         145.9846  141.5684  162.7610 O.2     1  UNL1       -0.2707
     21 C         145.0209  139.7531  164.3504 C.3     1  UNL1        0.2898
     22 O         143.9528  138.7550  164.6862 O.3     1  UNL1       -0.4628
     23 H         143.6754  140.9254  161.3563 H       1  UNL1        0.1565
     24 C         137.7577  144.2218  163.5944 C.3     1  UNL1        0.0320
     25 C         138.9041  145.1617  163.3652 C.3     1  UNL1        0.0327
     26 C         141.0893  142.9214  166.5988 C.ar    1  UNL1        0.2249
     27 C         142.4633  142.3790  166.3382 C.ar    1  UNL1        0.0593
     28 C         143.1088  142.5833  164.9997 C.ar    1  UNL1        0.0254
     29 C         142.3804  143.3300  163.9219 C.ar    1  UNL1        0.0990
     30 N         143.0260  143.5343  162.5834 N.ar    1  UNL1       -0.2400
     31 C         142.2976  144.2810  161.5055 C.ar    1  UNL1        0.1281
     32 C         140.9235  144.8235  161.7662 C.ar    1  UNL1        0.1566
     33 F         140.1951  145.5702  160.6883 F       1  UNL1       -0.2028
     34 C         140.2780  144.6192  163.1046 C.ar    1  UNL1        0.0261
     35 C         141.0064  143.8725  164.1825 C.ar    1  UNL1        0.1002
     36 N         140.3609  143.6682  165.5209 N.ar    1  UNL1       -0.2104
     37 O         140.4437  142.7172  167.9373 O.3     1  UNL1       -0.4596
     38 C         140.6565  141.4341  168.6846 C.3     1  UNL1        0.2174
     39 C         139.5053  140.5004  168.9147 C.3     1  UNL1        0.1297
     40 C         138.3693  139.8071  169.6067 C.3     1  UNL1        0.0149
     41 C         139.1491  140.8686  170.3245 C.3     1  UNL1        0.0149
     42 C         139.4618  139.8080  167.5848 C.2     1  UNL1        0.3196
     43 O         140.7379  139.4836  166.8661 O.2     1  UNL1       -0.2500
     44 C         137.8497  138.0105  166.6256 C.3     1  UNL1        0.2556
     45 O         138.1425  139.4399  166.9736 O.3     1  UNL1       -0.4443
@<TRIPOS>BOND
     1    44    45    1
     2    45    42    1
     3    42    43    2
     4    42    39    1
     5    39    38    1
     6    38    37    1
     7    37    26    1
     8    26    27   ar
     9    27    28   ar
    10    28    29   ar
    11    29    30   ar
    12    30    31   ar
    13    31    32   ar
    14    32    33    1
    15    32    34   ar
    16    34    25    1
    17    25    24    1
    18    24     1    1
    19     1     2    1
    20     2     3    1
    21     3     4    1
    22     4     9    1
    23     9    11    1
    24    11    12    1
    25    12    13   ar
    26    13    14   ar
    27    14    15   ar
    28    15    16   ar
    29    16    17   ar
    30    16    18    1
    31    18    19   am
    32    19    20    2
    33    19    21    1
    34    21    22    1
    35     4     5    1
    36     5     6    1
    37     4     7    1
    38     7     8    1
    39    34    35   ar
    40    35    36   ar
    41    39    40    1
    42    40    41    1
    43    41    39    1
    44    36    26   ar
    45    35    29   ar
    46     6     1    1
    47     8     1    1
    48    17    12   ar
    49    22    15    1
    50     9    10    1
    51    18    23    1
@<TRIPOS>MOLECULE
*****
 45 51 0 0 0
SMALL
GASTEIGER

@<TRIPOS>ATOM
      1 C         138.0425  142.6089  164.1131 C.3     1  UNL1        0.0932
      2 C         137.7025  142.3532  162.6747 C.3     1  UNL1        0.0286
      3 C         137.7270  140.9536  162.1355 C.3     1  UNL1        0.0193
      4 C         138.0916  139.8098  163.0348 C.3     1  UNL1        0.0700
      5 C         138.4316  140.0655  164.4732 C.3     1  UNL1        0.0193
      6 C         138.4070  141.4650  165.0124 C.3     1  UNL1        0.0286
      7 C         138.0918  140.5593  163.3756 C.3     1  UNL1        0.1562
      8 O         138.0696  141.8248  163.8631 O.3     1  UNL1       -0.3572
      9 N         138.1162  138.4103  162.4956 N.3     1  UNL1       -0.2926
     10 H         137.8038  138.4627  161.5261 H       1  UNL1        0.1236
     11 C         139.3964  137.6286  162.4965 C.3     1  UNL1        0.1152
     12 C         140.5594  138.0933  161.6709 C.ar    1  UNL1        0.0765
     13 C         141.9602  137.8902  162.1672 C.ar    1  UNL1        0.0193
     14 C         143.1231  138.3549  161.3416 C.ar    1  UNL1        0.0411
     15 C         142.8852  139.0227  160.0196 C.ar    1  UNL1        0.1708
     16 C         141.4844  139.2258  159.5233 C.ar    1  UNL1        0.1682
     17 N         140.3215  138.7611  160.3489 N.ar    1  UNL1       -0.2304
     18 N         141.2465  139.8936  158.2014 N.am    1  UNL1       -0.2639
     19 C         142.4094  140.3583  157.3758 C.2     1  UNL1        0.2718
     20 O         142.1715  141.0261  156.0539 O.2     1  UNL1       -0.2707
     21 C         143.8103  140.1552  157.8721 C.3     1  UNL1        0.2898
     22 O         144.0482  139.4874  159.1940 O.3     1  UNL1       -0.4628
     23 H         140.3270  140.0269  157.8757 H       1  UNL1        0.1565
     24 C         138.0179  144.0084  164.6523 C.3     1  UNL1        0.0320
     25 C         139.2943  144.7863  164.7779 C.3     1  UNL1        0.0327
     26 C         143.1723  142.7160  165.7398 C.ar    1  UNL1        0.2249
     27 C         144.2350  142.5882  164.6890 C.ar    1  UNL1        0.0593
     28 C         144.0051  143.1504  163.3175 C.ar    1  UNL1        0.0254
     29 C         142.7124  143.8405  162.9969 C.ar    1  UNL1        0.0990
     30 N         142.4824  144.4028  161.6254 N.ar    1  UNL1       -0.2400
     31 C         141.1898  145.0928  161.3047 C.ar    1  UNL1        0.1281
     32 C         140.1270  145.2206  162.3556 C.ar    1  UNL1        0.1566
     33 F         138.8344  145.9107  162.0350 F       1  UNL1       -0.2028
     34 C         140.3570  144.6584  163.7271 C.ar    1  UNL1        0.0261
     35 C         141.6497  143.9683  164.0477 C.ar    1  UNL1        0.1002
     36 N         141.8797  143.4061  165.4192 N.ar    1  UNL1       -0.2104
     37 O         143.4023  142.1538  167.1114 O.3     1  UNL1       -0.4596
     38 C         142.3113  142.2136  168.1391 C.3     1  UNL1        0.2174
     39 C         141.5511  140.9715  168.4990 C.3     1  UNL1        0.1297
     40 C         140.3986  140.0325  168.6985 C.3     1  UNL1        0.0149
     41 C         140.1575  141.4124  168.1621 C.3     1  UNL1        0.0149
     42 C         142.6807  140.0995  168.9610 C.2     1  UNL1        0.3196
     43 O         143.4739  140.4806  170.1758 O.2     1  UNL1       -0.2500
     44 C         143.1049  138.8717  166.7110 C.3     1  UNL1        0.2556
     45 O         143.0173  138.8465  168.2082 O.3     1  UNL1       -0.4443
@<TRIPOS>BOND
     1    44    45    1
     2    45    42    1
     3    42    43    2
     4    42    39    1
     5    39    38    1
     6    38    37    1
     7    37    26    1
     8    26    27   ar
     9    27    28   ar
    10    28    29   ar
    11    29    30   ar
    12    30    31   ar
    13    31    32   ar
    14    32    33    1
    15    32    34   ar
    16    34    25    1
    17    25    24    1
    18    24     1    1
    19     1     2    1
    20     2     3    1
    21     3     4    1
    22     4     9    1
    23     9    11    1
    24    11    12    1
    25    12    13   ar
    26    13    14   ar
    27    14    15   ar
    28    15    16   ar
    29    16    17   ar
    30    16    18    1
    31    18    19   am
    32    19    20    2
    33    19    21    1
    34    21    22    1
    35     4     5    1
    36     5     6    1
    37     4     7    1
    38     7     8    1
    39    34    35   ar
    40    35    36   ar
    41    39    40    1
    42    40    41    1
    43    41    39    1
    44    36    26   ar
    45    35    29   ar
    46     6     1    1
    47     8     1    1
    48    17    12   ar
    49    22    15    1
    50     9    10    1
    51    18    23    1
@<TRIPOS>MOLECULE
*****
 45 51 0 0 0
SMALL
GASTEIGER

@<TRIPOS>ATOM
      1 C         143.3562  139.1288  163.8821 C.3     1  UNL1        0.0932
      2 C         143.2571  138.7589  162.4319 C.3     1  UNL1        0.0286
      3 C         142.0061  138.1211  161.9042 C.3     1  UNL1        0.0193
      4 C         140.8542  137.8533  162.8270 C.3     1  UNL1        0.0700
      5 C         140.9533  138.2232  164.2773 C.3     1  UNL1        0.0193
      6 C         142.2043  138.8609  164.8049 C.3     1  UNL1        0.0286
      7 C         141.5192  138.2047  163.1621 C.3     1  UNL1        0.1562
      8 O         142.6503  138.7813  163.6392 O.3     1  UNL1       -0.3572
      9 N         139.6032  137.2156  162.2994 N.3     1  UNL1       -0.2926
     10 H         139.3193  136.5141  162.9833 H       1  UNL1        0.1236
     11 C         138.3947  138.0573  162.0153 C.3     1  UNL1        0.1152
     12 C         138.5566  139.5038  161.6526 C.ar    1  UNL1        0.0765
     13 C         137.8745  140.5623  162.4676 C.ar    1  UNL1        0.0193
     14 C         138.0365  142.0087  162.1049 C.ar    1  UNL1        0.0411
     15 C         138.8804  142.3967  160.9271 C.ar    1  UNL1        0.1708
     16 C         139.5625  141.3382  160.1120 C.ar    1  UNL1        0.1682
     17 N         139.4006  139.8918  160.4748 N.ar    1  UNL1       -0.2304
     18 N         140.4064  141.7261  158.9342 N.am    1  UNL1       -0.2639
     19 C         140.5684  143.1725  158.5715 C.2     1  UNL1        0.2718
     20 O         141.4123  143.5604  157.3937 O.2     1  UNL1       -0.2707
     21 C         139.8863  144.2311  159.3865 C.3     1  UNL1        0.2898
     22 O         139.0423  143.8432  160.5643 O.3     1  UNL1       -0.4628
     23 H         140.8541  141.0314  158.3993 H       1  UNL1        0.1565
     24 C         144.6072  139.7665  164.4098 C.3     1  UNL1        0.0320
     25 C         144.6541  141.2480  164.6399 C.3     1  UNL1        0.0327
     26 C         140.7567  142.8209  166.2481 C.ar    1  UNL1        0.2249
     27 C         139.9148  143.7370  165.4104 C.ar    1  UNL1        0.0593
     28 C         140.3721  144.1289  164.0366 C.ar    1  UNL1        0.0254
     29 C         141.6712  143.6047  163.5006 C.ar    1  UNL1        0.0990
     30 N         142.1284  143.9966  162.1267 N.ar    1  UNL1       -0.2400
     31 C         143.4276  143.4723  161.5907 C.ar    1  UNL1        0.1281
     32 C         144.2695  142.5561  162.4284 C.ar    1  UNL1        0.1566
     33 F         145.5686  142.0318  161.8924 F       1  UNL1       -0.2028
     34 C         143.8122  142.1642  163.8022 C.ar    1  UNL1        0.0261
     35 C         142.5131  142.6885  164.3383 C.ar    1  UNL1        0.1002
     36 N         142.0558  142.2966  165.7120 N.ar    1  UNL1       -0.2104
     37 O         140.2995  142.4289  167.6220 O.3     1  UNL1       -0.4596
     38 C         141.3051  142.0391  168.6644 C.3     1  UNL1        0.2174
     39 C         141.4707  140.5976  169.0449 C.3     1  UNL1        0.1297
     40 C         142.1086  139.3375  169.5498 C.3     1  UNL1        0.0149
     41 C         142.8881  140.6189  169.5351 C.3     1  UNL1        0.0149
     42 C         140.1107  140.0759  168.6868 C.2     1  UNL1        0.3196
     43 O         139.0179  140.0632  169.7143 O.2     1  UNL1       -0.2500
     44 C         138.4512  139.1781  166.9008 C.3     1  UNL1        0.2556
     45 O         139.8434  139.5670  167.3014 O.3     1  UNL1       -0.4443
@<TRIPOS>BOND
     1    44    45    1
     2    45    42    1
     3    42    43    2
     4    42    39    1
     5    39    38    1
     6    38    37    1
     7    37    26    1
     8    26    27   ar
     9    27    28   ar
    10    28    29   ar
    11    29    30   ar
    12    30    31   ar
    13    31    32   ar
    14    32    33    1
    15    32    34   ar
    16    34    25    1
    17    25    24    1
    18    24     1    1
    19     1     2    1
    20     2     3    1
    21     3     4    1
    22     4     9    1
    23     9    11    1
    24    11    12    1
    25    12    13   ar
    26    13    14   ar
    27    14    15   ar
    28    15    16   ar
    29    16    17   ar
    30    16    18    1
    31    18    19   am
    32    19    20    2
    33    19    21    1
    34    21    22    1
    35     4     5    1
    36     5     6    1
    37     4     7    1
    38     7     8    1
    39    34    35   ar
    40    35    36   ar
    41    39    40    1
    42    40    41    1
    43    41    39    1
    44    36    26   ar
    45    35    29   ar
    46     6     1    1
    47     8     1    1
    48    17    12   ar
    49    22    15    1
    50     9    10    1
    51    18    23    1
