@<TRIPOS>MOLECULE
*****
 34 39 0 0 0
SMALL
GASTEIGER

@<TRIPOS>ATOM
      1 C         139.1956  139.2691  163.6489 C.3     1  UNL1        0.1534
      2 C         140.4953  139.0568  162.9308 C.3     1  UNL1        0.1067
      3 N         140.5052  138.8389  161.4467 N.3     1  UNL1       -0.2665
      4 C         141.8049  138.6265  160.7285 C.3     1  UNL1        0.0940
      5 C         141.8149  138.4086  159.2445 C.3     1  UNL1        0.1107
      6 N         140.5252  138.4031  158.4786 N.am    1  UNL1       -0.2764
      7 C         140.5352  138.1852  156.9945 C.2     1  UNL1        0.2301
      8 O         139.2455  138.1797  156.2286 O.2     1  UNL1       -0.2745
      9 C         139.2255  138.6154  159.1967 C.3     1  UNL1        0.1119
     10 C         139.2155  138.8333  160.6808 C.3     1  UNL1        0.1075
     11 C         137.9158  139.0457  161.3989 C.3     1  UNL1        0.1601
     12 O         137.9059  139.2636  162.8830 O.3     1  UNL1       -0.3489
     13 O         138.6049  139.8737  170.7142 O.2     1  UNL1       -0.2449
     14 C         139.4007  140.3271  169.5263 C.2     1  UNL1        0.3413
     15 O         140.5714  141.2644  169.5551 O.3     1  UNL1       -0.4404
     16 C         141.0598  141.4394  168.1476 C.3     1  UNL1        0.2356
     17 C         140.1909  140.6102  167.2491 C.ar    1  UNL1        0.0273
     18 C         140.2010  140.3923  165.7650 C.ar    1  UNL1       -0.0024
     19 C         139.1856  139.4870  165.1330 C.ar    1  UNL1        0.0057
     20 C         138.1602  138.7996  165.9850 C.ar    1  UNL1       -0.0017
     21 C         138.1502  139.0174  167.4691 C.ar    1  UNL1        0.0060
     22 C         139.1656  139.9228  168.1011 C.ar    1  UNL1        0.0752
     23 C         141.8348  137.9729  156.2764 C.3     1  UNL1        0.1116
     24 C         142.3306  136.5808  156.0188 C.ar    1  UNL1       -0.0130
     25 C         142.1491  135.9583  154.6662 C.ar    1  UNL1       -0.0022
     26 C         142.6449  134.5662  154.4086 C.ar    1  UNL1        0.0190
     27 C         143.3222  133.7967  155.5036 C.ar    1  UNL1        0.0862
     28 C         143.5037  134.4192  156.8562 C.ar    1  UNL1        0.0190
     29 C         143.0079  135.8113  157.1138 C.ar    1  UNL1       -0.0022
     30 N         143.8180  132.4046  155.2461 N.ar    1  UNL1       -0.1886
     31 C         144.7904  131.6434  156.0975 C.ar    1  UNL1        0.2258
     32 N         145.0018  130.2976  155.4694 N.ar    1  UNL1       -0.1045
     33 N         144.1600  130.2272  154.2298 N.ar    1  UNL1       -0.0222
     34 N         143.4284  131.5294  154.0918 N.ar    1  UNL1       -0.0385
@<TRIPOS>BOND
     1    13    14    2
     2    14    15    1
     3    15    16    1
     4    16    17    1
     5    17    18   ar
     6    18    19   ar
     7    19     1    1
     8     1     2    1
     9     2     3    1
    10     3     4    1
    11     4     5    1
    12     5     6    1
    13     6     7   am
    14     7     8    2
    15     7    23    1
    16    23    24    1
    17    24    25   ar
    18    25    26   ar
    19    26    27   ar
    20    27    30    1
    21    30    31   ar
    22    31    32   ar
    23    32    33   ar
    24    33    34   ar
    25    27    28   ar
    26    28    29   ar
    27     6     9    1
    28     9    10    1
    29    10    11    1
    30    11    12    1
    31    19    20   ar
    32    20    21   ar
    33    21    22   ar
    34    22    14    1
    35    22    17   ar
    36    12     1    1
    37    10     3    1
    38    29    24   ar
    39    34    30   ar
@<TRIPOS>MOLECULE
*****
 34 39 0 0 0
SMALL
GASTEIGER

@<TRIPOS>ATOM
      1 C         143.5166  139.8043  157.9356 C.3     1  UNL1        0.1534
      2 C         142.7739  140.8270  158.7432 C.3     1  UNL1        0.1067
      3 N         141.9022  140.3930  159.8842 N.3     1  UNL1       -0.2665
      4 C         141.1595  141.4158  160.6919 C.3     1  UNL1        0.0940
      5 C         140.2879  140.9818  161.8329 C.3     1  UNL1        0.1107
      6 N         140.1589  139.5250  162.1662 N.am    1  UNL1       -0.2764
      7 C         139.2872  139.0910  163.3072 C.2     1  UNL1        0.2301
      8 O         139.1583  137.6342  163.6405 O.2     1  UNL1       -0.2745
      9 C         140.9016  138.5022  161.3586 C.3     1  UNL1        0.1119
     10 C         141.7733  138.9362  160.2175 C.3     1  UNL1        0.1075
     11 C         142.5160  137.9134  159.4099 C.3     1  UNL1        0.1601
     12 O         143.3876  138.3475  158.2689 O.3     1  UNL1       -0.3489
     13 O         147.3462  141.3686  152.1459 O.2     1  UNL1       -0.2449
     14 C         147.1129  141.7492  153.5780 C.2     1  UNL1        0.3413
     15 O         147.8202  142.8395  154.3269 O.3     1  UNL1       -0.4404
     16 C         147.2759  142.8705  155.7243 C.3     1  UNL1        0.2356
     17 C         146.2323  141.7993  155.8390 C.ar    1  UNL1        0.0273
     18 C         145.3606  141.3653  156.9801 C.ar    1  UNL1       -0.0024
     19 C         144.3882  140.2383  156.7946 C.ar    1  UNL1        0.0057
     20 C         144.2875  139.5453  155.4681 C.ar    1  UNL1       -0.0017
     21 C         145.1591  139.9792  154.3271 C.ar    1  UNL1        0.0060
     22 C         146.1315  141.1062  154.5125 C.ar    1  UNL1        0.0752
     23 C         138.5446  140.1137  164.1148 C.3     1  UNL1        0.1116
     24 C         139.0199  140.4714  165.4918 C.ar    1  UNL1       -0.0130
     25 C         138.7622  139.5406  166.6396 C.ar    1  UNL1       -0.0022
     26 C         139.2375  139.8983  168.0166 C.ar    1  UNL1        0.0190
     27 C         139.9705  141.1868  168.2459 C.ar    1  UNL1        0.0862
     28 C         140.2282  142.1175  167.0982 C.ar    1  UNL1        0.0190
     29 C         139.7529  141.7599  165.7211 C.ar    1  UNL1       -0.0022
     30 N         140.4458  141.5444  169.6228 N.ar    1  UNL1       -0.1886
     31 C         141.8761  141.6434  170.0639 C.ar    1  UNL1        0.2258
     32 N         141.8885  142.0261  171.5143 N.ar    1  UNL1       -0.1045
     33 N         140.4659  142.1637  171.9695 N.ar    1  UNL1       -0.0222
     34 N         139.5743  141.8660  170.8006 N.ar    1  UNL1       -0.0385
@<TRIPOS>BOND
     1    13    14    2
     2    14    15    1
     3    15    16    1
     4    16    17    1
     5    17    18   ar
     6    18    19   ar
     7    19     1    1
     8     1     2    1
     9     2     3    1
    10     3     4    1
    11     4     5    1
    12     5     6    1
    13     6     7   am
    14     7     8    2
    15     7    23    1
    16    23    24    1
    17    24    25   ar
    18    25    26   ar
    19    26    27   ar
    20    27    30    1
    21    30    31   ar
    22    31    32   ar
    23    32    33   ar
    24    33    34   ar
    25    27    28   ar
    26    28    29   ar
    27     6     9    1
    28     9    10    1
    29    10    11    1
    30    11    12    1
    31    19    20   ar
    32    20    21   ar
    33    21    22   ar
    34    22    14    1
    35    22    17   ar
    36    12     1    1
    37    10     3    1
    38    29    24   ar
    39    34    30   ar
@<TRIPOS>MOLECULE
*****
 34 39 0 0 0
SMALL
GASTEIGER

@<TRIPOS>ATOM
      1 C         142.4425  137.6111  157.6072 C.3     1  UNL1        0.1534
      2 C         142.9533  137.2527  158.9712 C.3     1  UNL1        0.1067
      3 N         143.1936  138.3283  159.9886 N.3     1  UNL1       -0.2665
      4 C         143.7044  137.9699  161.3527 C.3     1  UNL1        0.0940
      5 C         143.9447  139.0456  162.3701 C.3     1  UNL1        0.1107
      6 N         143.6741  140.4797  162.0235 N.am    1  UNL1       -0.2764
      7 C         143.9143  141.5554  163.0410 C.2     1  UNL1        0.2301
      8 O         143.6437  142.9895  162.6944 O.2     1  UNL1       -0.2745
      9 C         143.1632  140.8381  160.6595 C.3     1  UNL1        0.1119
     10 C         142.9230  139.7624  159.6420 C.3     1  UNL1        0.1075
     11 C         142.4121  140.1209  158.2780 C.3     1  UNL1        0.1601
     12 O         142.1719  139.0452  157.2606 O.3     1  UNL1       -0.3489
     13 O         140.8015  132.9110  152.5230 O.2     1  UNL1       -0.2449
     14 C         141.7150  133.1613  153.6861 C.2     1  UNL1        0.3413
     15 O         142.7824  132.2327  154.1846 O.3     1  UNL1       -0.4404
     16 C         143.4486  132.8816  155.3614 C.3     1  UNL1        0.2356
     17 C         142.7931  134.2111  155.5903 C.ar    1  UNL1        0.0273
     18 C         143.0334  135.2869  156.6077 C.ar    1  UNL1       -0.0024
     19 C         142.2022  136.5354  156.5898 C.ar    1  UNL1        0.0057
     20 C         141.1308  136.7082  155.5543 C.ar    1  UNL1       -0.0017
     21 C         140.8905  135.6326  154.5369 C.ar    1  UNL1        0.0060
     22 C         141.7217  134.3840  154.5548 C.ar    1  UNL1        0.0752
     23 C         144.4252  141.1970  164.4050 C.3     1  UNL1        0.1116
     24 C         143.4595  140.9317  165.5216 C.ar    1  UNL1       -0.0130
     25 C         142.7216  142.0701  166.1616 C.ar    1  UNL1       -0.0022
     26 C         141.7558  141.8048  167.2782 C.ar    1  UNL1        0.0190
     27 C         141.5280  140.4009  167.7550 C.ar    1  UNL1        0.0862
     28 C         142.2658  139.2625  167.1152 C.ar    1  UNL1        0.0190
     29 C         143.2316  139.5278  165.9984 C.ar    1  UNL1       -0.0022
     30 N         140.5623  140.1356  168.8716 N.ar    1  UNL1       -0.1886
     31 C         140.9139  139.9669  170.3201 C.ar    1  UNL1        0.2258
     32 N         139.6443  139.7193  171.0796 N.ar    1  UNL1       -0.1045
     33 N         138.5079  139.7350  170.1005 N.ar    1  UNL1       -0.0222
     34 N         139.0753  139.9922  168.7360 N.ar    1  UNL1       -0.0385
@<TRIPOS>BOND
     1    13    14    2
     2    14    15    1
     3    15    16    1
     4    16    17    1
     5    17    18   ar
     6    18    19   ar
     7    19     1    1
     8     1     2    1
     9     2     3    1
    10     3     4    1
    11     4     5    1
    12     5     6    1
    13     6     7   am
    14     7     8    2
    15     7    23    1
    16    23    24    1
    17    24    25   ar
    18    25    26   ar
    19    26    27   ar
    20    27    30    1
    21    30    31   ar
    22    31    32   ar
    23    32    33   ar
    24    33    34   ar
    25    27    28   ar
    26    28    29   ar
    27     6     9    1
    28     9    10    1
    29    10    11    1
    30    11    12    1
    31    19    20   ar
    32    20    21   ar
    33    21    22   ar
    34    22    14    1
    35    22    17   ar
    36    12     1    1
    37    10     3    1
    38    29    24   ar
    39    34    30   ar
@<TRIPOS>MOLECULE
*****
 34 39 0 0 0
SMALL
GASTEIGER

@<TRIPOS>ATOM
      1 C         140.9394  139.5569  164.7494 C.3     1  UNL1        0.1534
      2 C         142.0522  138.8753  164.0096 C.3     1  UNL1        0.1067
      3 N         141.9449  138.6561  162.5296 N.3     1  UNL1       -0.2665
      4 C         143.0577  137.9745  161.7898 C.3     1  UNL1        0.0940
      5 C         142.9505  137.7553  160.3098 C.3     1  UNL1        0.1107
      6 N         141.7306  138.2177  159.5696 N.am    1  UNL1       -0.2764
      7 C         141.6234  137.9985  158.0895 C.2     1  UNL1        0.2301
      8 O         140.4035  138.4609  157.3493 O.2     1  UNL1       -0.2745
      9 C         140.6178  138.8993  160.3093 C.3     1  UNL1        0.1119
     10 C         140.7250  139.1185  161.7894 C.3     1  UNL1        0.1075
     11 C         139.6123  139.8001  162.5291 C.3     1  UNL1        0.1601
     12 O         139.7195  140.0193  164.0091 O.3     1  UNL1       -0.3489
     13 O         142.1355  140.5952  171.6866 O.2     1  UNL1       -0.2449
     14 C         141.0548  140.4274  170.6598 C.2     1  UNL1        0.3413
     15 O         139.5783  140.4430  170.9234 O.3     1  UNL1       -0.4404
     16 C         138.8719  140.2398  169.6159 C.3     1  UNL1        0.2356
     17 C         139.9118  140.0986  168.5443 C.ar    1  UNL1        0.0273
     18 C         139.8047  139.8794  167.0642 C.ar    1  UNL1       -0.0024
     19 C         141.0466  139.7761  166.2294 C.ar    1  UNL1        0.0057
     20 C         142.3958  139.8920  166.8747 C.ar    1  UNL1       -0.0017
     21 C         142.5030  140.1112  168.3547 C.ar    1  UNL1        0.0060
     22 C         141.2610  140.2145  169.1895 C.ar    1  UNL1        0.0752
     23 C         142.7361  137.3169  157.3498 C.3     1  UNL1        0.1116
     24 C         142.5612  135.9087  156.8635 C.ar    1  UNL1       -0.0130
     25 C         143.3169  134.7901  157.5175 C.ar    1  UNL1       -0.0022
     26 C         143.1420  133.3819  157.0313 C.ar    1  UNL1        0.0190
     27 C         142.2115  133.0923  155.8910 C.ar    1  UNL1        0.0862
     28 C         141.4559  134.2109  155.2369 C.ar    1  UNL1        0.0190
     29 C         141.6307  135.6191  155.7232 C.ar    1  UNL1       -0.0022
     30 N         142.0366  131.6842  155.4047 N.ar    1  UNL1       -0.1886
     31 C         140.8094  131.1238  154.7490 C.ar    1  UNL1        0.2258
     32 N         141.0726  129.6824  154.4277 N.ar    1  UNL1       -0.1045
     33 N         142.4625  129.3519  154.8850 N.ar    1  UNL1       -0.0222
     34 N         143.0583  130.5890  155.4888 N.ar    1  UNL1       -0.0385
@<TRIPOS>BOND
     1    13    14    2
     2    14    15    1
     3    15    16    1
     4    16    17    1
     5    17    18   ar
     6    18    19   ar
     7    19     1    1
     8     1     2    1
     9     2     3    1
    10     3     4    1
    11     4     5    1
    12     5     6    1
    13     6     7   am
    14     7     8    2
    15     7    23    1
    16    23    24    1
    17    24    25   ar
    18    25    26   ar
    19    26    27   ar
    20    27    30    1
    21    30    31   ar
    22    31    32   ar
    23    32    33   ar
    24    33    34   ar
    25    27    28   ar
    26    28    29   ar
    27     6     9    1
    28     9    10    1
    29    10    11    1
    30    11    12    1
    31    19    20   ar
    32    20    21   ar
    33    21    22   ar
    34    22    14    1
    35    22    17   ar
    36    12     1    1
    37    10     3    1
    38    29    24   ar
    39    34    30   ar
@<TRIPOS>MOLECULE
*****
 34 39 0 0 0
SMALL
GASTEIGER

@<TRIPOS>ATOM
      1 C         143.1151  141.8789  158.2414 C.3     1  UNL1        0.1534
      2 C         143.0382  140.8688  159.3476 C.3     1  UNL1        0.1067
      3 N         141.8506  140.8487  160.2637 N.3     1  UNL1       -0.2665
      4 C         141.7737  139.8386  161.3700 C.3     1  UNL1        0.0940
      5 C         140.5861  139.8185  162.2860 C.3     1  UNL1        0.1107
      6 N         139.4754  140.8086  162.0958 N.am    1  UNL1       -0.2764
      7 C         138.2878  140.7885  163.0120 C.2     1  UNL1        0.2301
      8 O         137.1771  141.7785  162.8218 O.2     1  UNL1       -0.2745
      9 C         139.5523  141.8186  160.9896 C.3     1  UNL1        0.1119
     10 C         140.7399  141.8387  160.0735 C.3     1  UNL1        0.1075
     11 C         140.8168  142.8488  158.9673 C.3     1  UNL1        0.1601
     12 O         142.0044  142.8689  158.0512 O.3     1  UNL1       -0.3489
     13 O         149.0957  142.2865  154.4074 O.2     1  UNL1       -0.2449
     14 C         147.6711  141.8179  154.3756 C.2     1  UNL1        0.3413
     15 O         146.9896  141.1458  153.2207 O.3     1  UNL1       -0.4404
     16 C         145.5752  140.8517  153.6244 C.3     1  UNL1        0.2356
     17 C         145.3826  141.3420  155.0288 C.ar    1  UNL1        0.0273
     18 C         144.1950  141.3219  155.9449 C.ar    1  UNL1       -0.0024
     19 C         144.3027  141.8990  157.3252 C.ar    1  UNL1        0.0057
     20 C         145.5980  142.4961  157.7895 C.ar    1  UNL1       -0.0017
     21 C         146.7856  142.5162  156.8735 C.ar    1  UNL1        0.0060
     22 C         146.6779  141.9392  155.4931 C.ar    1  UNL1        0.0752
     23 C         138.2109  139.7784  164.1182 C.3     1  UNL1        0.1116
     24 C         138.7266  140.1216  165.4843 C.ar    1  UNL1       -0.0130
     25 C         138.3940  139.2434  166.6540 C.ar    1  UNL1       -0.0022
     26 C         138.9096  139.5866  168.0201 C.ar    1  UNL1        0.0190
     27 C         139.7579  140.8080  168.2166 C.ar    1  UNL1        0.0862
     28 C         140.0906  141.6862  167.0469 C.ar    1  UNL1        0.0190
     29 C         139.5749  141.3430  165.6808 C.ar    1  UNL1       -0.0022
     30 N         140.2736  141.1512  169.5827 N.ar    1  UNL1       -0.1886
     31 C         141.5062  140.5892  170.2267 C.ar    1  UNL1        0.2258
     32 N         141.6416  141.2074  171.5868 N.ar    1  UNL1       -0.1045
     33 N         140.4926  142.1514  171.7833 N.ar    1  UNL1       -0.0222
     34 N         139.6471  142.1167  170.5447 N.ar    1  UNL1       -0.0385
@<TRIPOS>BOND
     1    13    14    2
     2    14    15    1
     3    15    16    1
     4    16    17    1
     5    17    18   ar
     6    18    19   ar
     7    19     1    1
     8     1     2    1
     9     2     3    1
    10     3     4    1
    11     4     5    1
    12     5     6    1
    13     6     7   am
    14     7     8    2
    15     7    23    1
    16    23    24    1
    17    24    25   ar
    18    25    26   ar
    19    26    27   ar
    20    27    30    1
    21    30    31   ar
    22    31    32   ar
    23    32    33   ar
    24    33    34   ar
    25    27    28   ar
    26    28    29   ar
    27     6     9    1
    28     9    10    1
    29    10    11    1
    30    11    12    1
    31    19    20   ar
    32    20    21   ar
    33    21    22   ar
    34    22    14    1
    35    22    17   ar
    36    12     1    1
    37    10     3    1
    38    29    24   ar
    39    34    30   ar
@<TRIPOS>MOLECULE
*****
 34 39 0 0 0
SMALL
GASTEIGER

@<TRIPOS>ATOM
      1 C         142.2368  143.5746  158.6599 C.3     1  UNL1        0.1534
      2 C         141.2821  142.9246  159.6170 C.3     1  UNL1        0.1067
      3 N         141.7955  141.9803  160.6632 N.3     1  UNL1       -0.2665
      4 C         140.8408  141.3303  161.6204 C.3     1  UNL1        0.0940
      5 C         141.3542  140.3859  162.6665 C.3     1  UNL1        0.1107
      6 N         142.8223  140.0914  162.7556 N.am    1  UNL1       -0.2764
      7 C         143.3357  139.1470  163.8019 C.2     1  UNL1        0.2301
      8 O         144.8038  138.8525  163.8909 O.2     1  UNL1       -0.2745
      9 C         143.7770  140.7414  161.7985 C.3     1  UNL1        0.1119
     10 C         143.2636  141.6858  160.7523 C.3     1  UNL1        0.1075
     11 C         144.2183  142.3357  159.7952 C.3     1  UNL1        0.1601
     12 O         143.7049  143.2801  158.7490 O.3     1  UNL1       -0.3489
     13 O         139.3944  148.3242  154.1884 O.2     1  UNL1       -0.2449
     14 C         140.3832  147.2005  154.2871 C.2     1  UNL1        0.3413
     15 O         141.2320  146.6723  153.1689 O.3     1  UNL1       -0.4404
     16 C         142.0701  145.5531  153.7121 C.3     1  UNL1        0.2356
     17 C         141.7392  145.3897  155.1659 C.ar    1  UNL1        0.0273
     18 C         142.2526  144.4452  156.2121 C.ar    1  UNL1       -0.0024
     19 C         141.7234  144.5190  157.6137 C.ar    1  UNL1        0.0057
     20 C         140.6808  145.5372  157.9691 C.ar    1  UNL1       -0.0017
     21 C         140.1675  146.4816  156.9230 C.ar    1  UNL1        0.0060
     22 C         140.6967  146.4079  155.5213 C.ar    1  UNL1        0.0752
     23 C         142.3809  138.4971  164.7590 C.3     1  UNL1        0.1116
     24 C         141.9724  139.2123  166.0125 C.ar    1  UNL1       -0.0130
     25 C         142.9564  139.3862  167.1314 C.ar    1  UNL1       -0.0022
     26 C         142.5479  140.1015  168.3850 C.ar    1  UNL1        0.0190
     27 C         141.1555  140.6429  168.5198 C.ar    1  UNL1        0.0862
     28 C         140.1716  140.4690  167.4010 C.ar    1  UNL1        0.0190
     29 C         140.5801  139.7537  166.1473 C.ar    1  UNL1       -0.0022
     30 N         140.7470  141.3582  169.7733 N.ar    1  UNL1       -0.1886
     31 C         141.1014  140.9548  171.1740 C.ar    1  UNL1        0.2258
     32 N         140.4858  141.9498  172.1127 N.ar    1  UNL1       -0.1045
     33 N         139.7509  142.9681  171.2922 N.ar    1  UNL1       -0.0222
     34 N         139.9123  142.6024  169.8464 N.ar    1  UNL1       -0.0385
@<TRIPOS>BOND
     1    13    14    2
     2    14    15    1
     3    15    16    1
     4    16    17    1
     5    17    18   ar
     6    18    19   ar
     7    19     1    1
     8     1     2    1
     9     2     3    1
    10     3     4    1
    11     4     5    1
    12     5     6    1
    13     6     7   am
    14     7     8    2
    15     7    23    1
    16    23    24    1
    17    24    25   ar
    18    25    26   ar
    19    26    27   ar
    20    27    30    1
    21    30    31   ar
    22    31    32   ar
    23    32    33   ar
    24    33    34   ar
    25    27    28   ar
    26    28    29   ar
    27     6     9    1
    28     9    10    1
    29    10    11    1
    30    11    12    1
    31    19    20   ar
    32    20    21   ar
    33    21    22   ar
    34    22    14    1
    35    22    17   ar
    36    12     1    1
    37    10     3    1
    38    29    24   ar
    39    34    30   ar
@<TRIPOS>MOLECULE
*****
 34 39 0 0 0
SMALL
GASTEIGER

@<TRIPOS>ATOM
      1 C         138.7714  140.6387  157.6988 C.3     1  UNL1        0.1534
      2 C         138.3925  139.8668  158.9278 C.3     1  UNL1        0.1067
      3 N         139.3902  139.6773  160.0317 N.3     1  UNL1       -0.2665
      4 C         139.0114  138.9053  161.2608 C.3     1  UNL1        0.0940
      5 C         140.0091  138.7158  162.3646 C.3     1  UNL1        0.1107
      6 N         141.3858  139.2981  162.2394 N.am    1  UNL1       -0.2764
      7 C         142.3836  139.1086  163.3433 C.2     1  UNL1        0.2301
      8 O         143.7602  139.6909  163.2182 O.2     1  UNL1       -0.2745
      9 C         141.7647  140.0701  161.0104 C.3     1  UNL1        0.1119
     10 C         140.7669  140.2596  159.9065 C.3     1  UNL1        0.1075
     11 C         141.1458  141.0316  158.6775 C.3     1  UNL1        0.1601
     12 O         140.1480  141.2211  157.5736 O.3     1  UNL1       -0.3489
     13 O         134.5773  141.6100  152.0332 O.2     1  UNL1       -0.2449
     14 C         134.5694  141.3585  153.5119 C.2     1  UNL1        0.3413
     15 O         133.3511  141.2140  154.3751 O.3     1  UNL1       -0.4404
     16 C         133.8071  140.9736  155.7837 C.3     1  UNL1        0.2356
     17 C         135.3070  140.9696  155.7912 C.ar    1  UNL1        0.0273
     18 C         136.3047  140.7800  156.8951 C.ar    1  UNL1       -0.0024
     19 C         137.7736  140.8283  156.5949 C.ar    1  UNL1        0.0057
     20 C         138.2447  141.0662  155.1908 C.ar    1  UNL1       -0.0017
     21 C         137.2470  141.2558  154.0869 C.ar    1  UNL1        0.0060
     22 C         135.7781  141.2075  154.3871 C.ar    1  UNL1        0.0752
     23 C         142.0047  138.3366  164.5724 C.3     1  UNL1        0.1116
     24 C         141.6910  139.0626  165.8469 C.ar    1  UNL1       -0.0130
     25 C         140.2998  139.5617  166.1029 C.ar    1  UNL1       -0.0022
     26 C         139.9861  140.2877  167.3775 C.ar    1  UNL1        0.0190
     27 C         141.0636  140.5146  168.3961 C.ar    1  UNL1        0.0862
     28 C         142.4547  140.0156  168.1401 C.ar    1  UNL1        0.0190
     29 C         142.7685  139.2895  166.8655 C.ar    1  UNL1       -0.0022
     30 N         140.7499  141.2406  169.6706 N.ar    1  UNL1       -0.1886
     31 C         141.2681  140.8919  171.0344 C.ar    1  UNL1        0.2258
     32 N         140.7014  141.8786  172.0119 N.ar    1  UNL1       -0.1045
     33 N         139.8329  142.8371  171.2521 N.ar    1  UNL1       -0.0222
     34 N         139.8629  142.4428  169.8052 N.ar    1  UNL1       -0.0385
@<TRIPOS>BOND
     1    13    14    2
     2    14    15    1
     3    15    16    1
     4    16    17    1
     5    17    18   ar
     6    18    19   ar
     7    19     1    1
     8     1     2    1
     9     2     3    1
    10     3     4    1
    11     4     5    1
    12     5     6    1
    13     6     7   am
    14     7     8    2
    15     7    23    1
    16    23    24    1
    17    24    25   ar
    18    25    26   ar
    19    26    27   ar
    20    27    30    1
    21    30    31   ar
    22    31    32   ar
    23    32    33   ar
    24    33    34   ar
    25    27    28   ar
    26    28    29   ar
    27     6     9    1
    28     9    10    1
    29    10    11    1
    30    11    12    1
    31    19    20   ar
    32    20    21   ar
    33    21    22   ar
    34    22    14    1
    35    22    17   ar
    36    12     1    1
    37    10     3    1
    38    29    24   ar
    39    34    30   ar
@<TRIPOS>MOLECULE
*****
 34 39 0 0 0
SMALL
GASTEIGER

@<TRIPOS>ATOM
      1 C         142.4598  137.8272  157.7418 C.3     1  UNL1        0.1534
      2 C         141.2595  138.0265  158.6189 C.3     1  UNL1        0.1067
      3 N         141.2244  139.1653  159.5946 N.3     1  UNL1       -0.2665
      4 C         140.0239  139.3647  160.4717 C.3     1  UNL1        0.0940
      5 C         139.9889  140.5034  161.4474 C.3     1  UNL1        0.1107
      6 N         141.1542  141.4427  161.5461 N.am    1  UNL1       -0.2764
      7 C         141.1190  142.5815  162.5219 C.2     1  UNL1        0.2301
      8 O         142.2843  143.5208  162.6205 O.2     1  UNL1       -0.2745
      9 C         142.3545  141.2434  160.6690 C.3     1  UNL1        0.1119
     10 C         142.3897  140.1046  159.6933 C.3     1  UNL1        0.1075
     11 C         143.5901  139.9052  158.8162 C.3     1  UNL1        0.1601
     12 O         143.6251  138.7665  157.8405 O.3     1  UNL1       -0.3489
     13 O         142.2660  132.8291  152.6807 O.2     1  UNL1       -0.2449
     14 C         142.7616  133.1268  154.0649 C.2     1  UNL1        0.3413
     15 O         143.5407  132.1923  154.9423 O.3     1  UNL1       -0.4404
     16 C         143.8257  132.8991  156.2343 C.3     1  UNL1        0.2356
     17 C         143.2229  134.2703  156.1553 C.ar    1  UNL1        0.0273
     18 C         143.1877  135.4091  157.1311 C.ar    1  UNL1       -0.0024
     19 C         142.4950  136.6884  156.7661 C.ar    1  UNL1        0.0057
     20 C         141.8373  136.8291  155.4253 C.ar    1  UNL1       -0.0017
     21 C         141.8724  135.6904  154.4495 C.ar    1  UNL1        0.0060
     22 C         142.5652  134.4110  154.8145 C.ar    1  UNL1        0.0752
     23 C         139.9187  142.7809  163.3989 C.3     1  UNL1        0.1116
     24 C         139.9465  142.3170  164.8251 C.ar    1  UNL1       -0.0130
     25 C         140.5704  143.1792  165.8822 C.ar    1  UNL1       -0.0022
     26 C         140.5983  142.7153  167.3084 C.ar    1  UNL1        0.0190
     27 C         140.0022  141.3893  167.6775 C.ar    1  UNL1        0.0862
     28 C         139.3783  140.5271  166.6205 C.ar    1  UNL1        0.0190
     29 C         139.3505  140.9909  165.1943 C.ar    1  UNL1       -0.0022
     30 N         140.0301  140.9254  169.1037 N.ar    1  UNL1       -0.1886
     31 C         140.8268  141.5409  170.2157 C.ar    1  UNL1        0.2258
     32 N         140.5552  140.7605  171.4676 N.ar    1  UNL1       -0.1045
     33 N         139.5907  139.6625  171.1293 N.ar    1  UNL1       -0.0222
     34 N         139.2662  139.7645  169.6684 N.ar    1  UNL1       -0.0385
@<TRIPOS>BOND
     1    13    14    2
     2    14    15    1
     3    15    16    1
     4    16    17    1
     5    17    18   ar
     6    18    19   ar
     7    19     1    1
     8     1     2    1
     9     2     3    1
    10     3     4    1
    11     4     5    1
    12     5     6    1
    13     6     7   am
    14     7     8    2
    15     7    23    1
    16    23    24    1
    17    24    25   ar
    18    25    26   ar
    19    26    27   ar
    20    27    30    1
    21    30    31   ar
    22    31    32   ar
    23    32    33   ar
    24    33    34   ar
    25    27    28   ar
    26    28    29   ar
    27     6     9    1
    28     9    10    1
    29    10    11    1
    30    11    12    1
    31    19    20   ar
    32    20    21   ar
    33    21    22   ar
    34    22    14    1
    35    22    17   ar
    36    12     1    1
    37    10     3    1
    38    29    24   ar
    39    34    30   ar
@<TRIPOS>MOLECULE
*****
 34 39 0 0 0
SMALL
GASTEIGER

@<TRIPOS>ATOM
      1 C         142.4436  140.8728  164.9594 C.3     1  UNL1        0.1534
      2 C         141.4210  140.3010  164.0228 C.3     1  UNL1        0.1067
      3 N         141.7694  140.0702  162.5822 N.3     1  UNL1       -0.2665
      4 C         140.7467  139.4984  161.6455 C.3     1  UNL1        0.0940
      5 C         141.0951  139.2676  160.2049 C.3     1  UNL1        0.1107
      6 N         142.4662  139.6086  159.7010 N.am    1  UNL1       -0.2764
      7 C         142.8146  139.3777  158.2603 C.2     1  UNL1        0.2301
      8 O         144.1856  139.7187  157.7563 O.2     1  UNL1       -0.2745
      9 C         143.4888  140.1803  160.6376 C.3     1  UNL1        0.1119
     10 C         143.1404  140.4112  162.0782 C.3     1  UNL1        0.1075
     11 C         144.1630  140.9830  163.0148 C.3     1  UNL1        0.1601
     12 O         143.8146  141.2138  164.4554 O.3     1  UNL1       -0.3489
     13 O         141.3679  142.3488  171.8367 O.2     1  UNL1       -0.2449
     14 C         140.8013  141.6170  170.6562 C.2     1  UNL1        0.3413
     15 O         139.5379  140.8084  170.6436 O.3     1  UNL1       -0.4404
     16 C         139.3544  140.2570  169.2607 C.3     1  UNL1        0.2356
     17 C         140.5043  140.7247  168.4188 C.ar    1  UNL1        0.0273
     18 C         140.8526  140.4939  166.9781 C.ar    1  UNL1       -0.0024
     19 C         142.0952  141.1036  166.4000 C.ar    1  UNL1        0.0057
     20 C         142.9894  141.9442  167.2625 C.ar    1  UNL1       -0.0017
     21 C         142.6411  142.1750  168.7031 C.ar    1  UNL1        0.0060
     22 C         141.3985  141.5653  169.2813 C.ar    1  UNL1        0.0752
     23 C         141.7919  138.8059  157.3237 C.3     1  UNL1        0.1116
     24 C         141.9164  137.3872  156.8529 C.ar    1  UNL1       -0.0130
     25 C         140.9808  136.8597  155.8058 C.ar    1  UNL1       -0.0022
     26 C         141.1052  135.4409  155.3350 C.ar    1  UNL1        0.0190
     27 C         142.1653  134.5497  155.9112 C.ar    1  UNL1        0.0862
     28 C         143.1009  135.0772  156.9582 C.ar    1  UNL1        0.0190
     29 C         142.9765  136.4960  157.4291 C.ar    1  UNL1       -0.0022
     30 N         142.2898  133.1310  155.4403 N.ar    1  UNL1       -0.1886
     31 C         141.1656  132.2563  154.9701 C.ar    1  UNL1        0.2258
     32 N         141.7413  130.9225  154.5962 N.ar    1  UNL1       -0.1045
     33 N         143.2213  130.9730  154.8354 N.ar    1  UNL1       -0.0222
     34 N         143.5603  132.3379  155.3571 N.ar    1  UNL1       -0.0385
@<TRIPOS>BOND
     1    13    14    2
     2    14    15    1
     3    15    16    1
     4    16    17    1
     5    17    18   ar
     6    18    19   ar
     7    19     1    1
     8     1     2    1
     9     2     3    1
    10     3     4    1
    11     4     5    1
    12     5     6    1
    13     6     7   am
    14     7     8    2
    15     7    23    1
    16    23    24    1
    17    24    25   ar
    18    25    26   ar
    19    26    27   ar
    20    27    30    1
    21    30    31   ar
    22    31    32   ar
    23    32    33   ar
    24    33    34   ar
    25    27    28   ar
    26    28    29   ar
    27     6     9    1
    28     9    10    1
    29    10    11    1
    30    11    12    1
    31    19    20   ar
    32    20    21   ar
    33    21    22   ar
    34    22    14    1
    35    22    17   ar
    36    12     1    1
    37    10     3    1
    38    29    24   ar
    39    34    30   ar
