@<TRIPOS>MOLECULE
*****
 32 35 0 0 0
SMALL
GASTEIGER

@<TRIPOS>ATOM
      1 C         141.1698  143.4493  159.1550 C.3     1  UNL1        0.2563
      2 N         140.4071  143.5559  160.4422 N.2     1  UNL1       -0.2434
      3 C         140.9059  143.3619  161.8435 C.2     1  UNL1        0.0795
      4 C         142.2904  143.0135  162.3037 C.ar    1  UNL1        0.0310
      5 C         142.3622  142.9140  163.7986 C.ar    1  UNL1        0.0027
      6 C         143.6618  142.5739  164.4661 C.ar    1  UNL1        0.0001
      7 C         144.8895  142.3334  163.6385 C.ar    1  UNL1        0.0013
      8 C         144.8177  142.4330  162.1436 C.ar    1  UNL1        0.0149
      9 C         143.5182  142.7731  161.4762 C.ar    1  UNL1        0.0554
     10 N         143.6646  142.8216  159.9841 N.am    1  UNL1       -0.2538
     11 C         145.0377  142.5306  159.4552 C.3     1  UNL1        0.1201
     12 C         142.6195  143.1225  158.9510 C.2     1  UNL1        0.2712
     13 O         143.0857  143.0928  157.5257 O.2     1  UNL1       -0.2705
     14 N         139.6260  145.3073  156.0062 N.am    1  UNL1       -0.2683
     15 C         140.4178  145.0535  157.2547 C.2     1  UNL1        0.3061
     16 O         141.2494  146.1501  157.8514 O.2     1  UNL1       -0.2524
     17 N         140.3780  143.7031  157.9065 N.am    1  UNL1       -0.2638
     18 H         139.0802  144.5876  155.6146 H       1  UNL1        0.1564
     19 H         139.8322  142.9834  157.5149 H       1  UNL1        0.1531
     20 C         138.2913  150.3290  155.9728 C.3     1  UNL1        0.0311
     21 C         138.9984  149.1686  155.3378 C.ar    1  UNL1       -0.0206
     22 C         139.7454  149.3586  154.0509 C.ar    1  UNL1       -0.0042
     23 C         140.4526  148.1982  153.4158 C.ar    1  UNL1        0.0010
     24 C         140.4128  146.8477  154.0676 C.ar    1  UNL1        0.0147
     25 C         139.6658  146.6578  155.3544 C.ar    1  UNL1        0.0513
     26 C         138.9587  147.8182  155.9895 C.ar    1  UNL1        0.0105
     27 C         139.8851  143.5399  162.9281 C.ar    1  UNL1        0.0174
     28 C         139.9101  144.7694  163.7871 C.ar    1  UNL1        0.0015
     29 C         138.8893  144.9473  164.8718 C.ar    1  UNL1        0.0000
     30 C         137.8435  143.8958  165.0973 C.ar    1  UNL1        0.0000
     31 C         137.8186  142.6665  164.2384 C.ar    1  UNL1        0.0000
     32 C         138.8393  142.4884  163.1538 C.ar    1  UNL1        0.0015
@<TRIPOS>BOND
     1    20    21    1
     2    21    22   ar
     3    22    23   ar
     4    23    24   ar
     5    24    25   ar
     6    25    14    1
     7    14    15   am
     8    15    16    2
     9    15    17   am
    10     1    17    1
    11     1     2    1
    12     2     3    2
    13     3    27    1
    14    27    28   ar
    15    28    29   ar
    16    29    30   ar
    17    30    31   ar
    18    31    32   ar
    19     3     4    1
    20     4     5   ar
    21     5     6   ar
    22     6     7   ar
    23     7     8   ar
    24     8     9   ar
    25     9    10    1
    26    10    11    1
    27    10    12   am
    28    12    13    2
    29    25    26   ar
    30    26    21   ar
    31    12     1    1
    32    32    27   ar
    33     9     4   ar
    34    14    18    1
    35    17    19    1
@<TRIPOS>MOLECULE
*****
 32 35 0 0 0
SMALL
GASTEIGER

@<TRIPOS>ATOM
      1 C         142.8129  143.0300  161.7146 C.3     1  UNL1        0.2563
      2 N         141.7797  141.9444  161.7788 N.2     1  UNL1       -0.2434
      3 C         141.2877  141.1916  162.9792 C.2     1  UNL1        0.0795
      4 C         141.7071  141.3382  164.4119 C.ar    1  UNL1        0.0310
      5 C         140.9630  140.3865  165.3010 C.ar    1  UNL1        0.0027
      6 C         141.2342  140.3706  166.7761 C.ar    1  UNL1        0.0001
      7 C         142.2494  141.3064  167.3623 C.ar    1  UNL1        0.0013
      8 C         142.9935  142.2582  166.4732 C.ar    1  UNL1        0.0149
      9 C         142.7223  142.2741  164.9980 C.ar    1  UNL1        0.0554
     10 N         143.5688  143.2944  164.2962 N.am    1  UNL1       -0.2538
     11 C         144.4978  144.0824  165.1714 C.3     1  UNL1        0.1201
     12 C         143.6092  143.6308  162.8350 C.2     1  UNL1        0.2712
     13 O         144.5731  144.7108  162.4421 O.2     1  UNL1       -0.2705
     14 N         144.0625  143.3097  157.9583 N.am    1  UNL1       -0.2683
     15 C         143.7895  142.7510  159.3233 C.2     1  UNL1        0.3061
     16 O         144.2200  141.3546  159.6620 O.2     1  UNL1       -0.2524
     17 N         143.0860  143.5887  160.3496 N.am    1  UNL1       -0.2638
     18 H         143.7800  144.2262  157.7360 H       1  UNL1        0.1564
     19 H         142.8034  144.5052  160.1273 H       1  UNL1        0.1531
     20 C         148.4518  141.7987  155.6235 C.3     1  UNL1        0.0311
     21 C         146.9607  141.7165  155.7646 C.ar    1  UNL1       -0.0206
     22 C         146.1732  140.7965  154.8794 C.ar    1  UNL1       -0.0042
     23 C         144.6821  140.7142  155.0206 C.ar    1  UNL1        0.0010
     24 C         143.9786  141.5520  156.0469 C.ar    1  UNL1        0.0147
     25 C         144.7661  142.4719  156.9320 C.ar    1  UNL1        0.0513
     26 C         146.2572  142.5542  156.7909 C.ar    1  UNL1        0.0105
     27 C         140.2371  140.1549  162.7116 C.ar    1  UNL1        0.0174
     28 C         140.6099  138.7025  162.6707 C.ar    1  UNL1        0.0015
     29 C         139.5594  137.6657  162.4030 C.ar    1  UNL1        0.0000
     30 C         138.1361  138.0814  162.1763 C.ar    1  UNL1        0.0000
     31 C         137.7633  139.5337  162.2171 C.ar    1  UNL1        0.0000
     32 C         138.8137  140.5705  162.4848 C.ar    1  UNL1        0.0015
@<TRIPOS>BOND
     1    20    21    1
     2    21    22   ar
     3    22    23   ar
     4    23    24   ar
     5    24    25   ar
     6    25    14    1
     7    14    15   am
     8    15    16    2
     9    15    17   am
    10     1    17    1
    11     1     2    1
    12     2     3    2
    13     3    27    1
    14    27    28   ar
    15    28    29   ar
    16    29    30   ar
    17    30    31   ar
    18    31    32   ar
    19     3     4    1
    20     4     5   ar
    21     5     6   ar
    22     6     7   ar
    23     7     8   ar
    24     8     9   ar
    25     9    10    1
    26    10    11    1
    27    10    12   am
    28    12    13    2
    29    25    26   ar
    30    26    21   ar
    31    12     1    1
    32    32    27   ar
    33     9     4   ar
    34    14    18    1
    35    17    19    1
@<TRIPOS>MOLECULE
*****
 32 35 0 0 0
SMALL
GASTEIGER

@<TRIPOS>ATOM
      1 C         141.2640  142.1155  162.4071 C.3     1  UNL1        0.2563
      2 N         140.4884  141.2219  163.3291 N.2     1  UNL1       -0.2434
      3 C         141.0078  140.2055  164.3024 C.2     1  UNL1        0.0795
      4 C         142.4309  139.8316  164.5940 C.ar    1  UNL1        0.0310
      5 C         142.5127  138.7624  165.6428 C.ar    1  UNL1        0.0027
      6 C         143.8497  138.2434  166.0820 C.ar    1  UNL1        0.0001
      7 C         145.1050  138.7936  165.4724 C.ar    1  UNL1        0.0013
      8 C         145.0232  139.8628  164.4235 C.ar    1  UNL1        0.0149
      9 C         143.6861  140.3818  163.9843 C.ar    1  UNL1        0.0554
     10 N         143.8283  141.4417  162.9325 N.am    1  UNL1       -0.2538
     11 C         145.2343  141.7741  162.5293 C.3     1  UNL1        0.1201
     12 C         142.7504  142.2133  162.2305 C.2     1  UNL1        0.2712
     13 O         143.2210  143.2151  161.2183 O.2     1  UNL1       -0.2705
     14 N         139.2398  143.5312  159.3009 N.am    1  UNL1       -0.2683
     15 C         140.0590  142.6143  160.1601 C.2     1  UNL1        0.3061
     16 O         140.4924  141.2791  159.6312 O.2     1  UNL1       -0.2524
     17 N         140.4448  143.0324  161.5479 N.am    1  UNL1       -0.2638
     18 H         138.9554  144.4075  159.6480 H       1  UNL1        0.1564
     19 H         140.1603  143.9087  161.8950 H       1  UNL1        0.1531
     20 C         136.0144  141.0249  156.0892 C.3     1  UNL1        0.0311
     21 C         137.2413  141.8599  156.3072 C.ar    1  UNL1       -0.0206
     22 C         138.0824  142.2766  155.1371 C.ar    1  UNL1       -0.0042
     23 C         139.3094  143.1116  155.3551 C.ar    1  UNL1        0.0010
     24 C         139.6951  143.5298  156.7430 C.ar    1  UNL1        0.0147
     25 C         138.8540  143.1130  157.9130 C.ar    1  UNL1        0.0513
     26 C         137.6271  142.2781  157.6950 C.ar    1  UNL1        0.0105
     27 C         139.9663  139.4651  165.0879 C.ar    1  UNL1        0.0174
     28 C         139.4224  140.0553  166.3552 C.ar    1  UNL1        0.0015
     29 C         138.3809  139.3148  167.1408 C.ar    1  UNL1        0.0000
     30 C         137.8834  137.9842  166.6591 C.ar    1  UNL1        0.0000
     31 C         138.4273  137.3941  165.3919 C.ar    1  UNL1        0.0000
     32 C         139.4687  138.1345  164.6063 C.ar    1  UNL1        0.0015
@<TRIPOS>BOND
     1    20    21    1
     2    21    22   ar
     3    22    23   ar
     4    23    24   ar
     5    24    25   ar
     6    25    14    1
     7    14    15   am
     8    15    16    2
     9    15    17   am
    10     1    17    1
    11     1     2    1
    12     2     3    2
    13     3    27    1
    14    27    28   ar
    15    28    29   ar
    16    29    30   ar
    17    30    31   ar
    18    31    32   ar
    19     3     4    1
    20     4     5   ar
    21     5     6   ar
    22     6     7   ar
    23     7     8   ar
    24     8     9   ar
    25     9    10    1
    26    10    11    1
    27    10    12   am
    28    12    13    2
    29    25    26   ar
    30    26    21   ar
    31    12     1    1
    32    32    27   ar
    33     9     4   ar
    34    14    18    1
    35    17    19    1
@<TRIPOS>MOLECULE
*****
 32 35 0 0 0
SMALL
GASTEIGER

@<TRIPOS>ATOM
      1 C         139.8734  139.8346  162.5587 C.3     1  UNL1        0.2563
      2 N         140.6950  141.0517  162.8649 N.2     1  UNL1       -0.2434
      3 C         140.9971  141.6644  164.2003 C.2     1  UNL1        0.0795
      4 C         140.5523  141.2114  165.5594 C.ar    1  UNL1        0.0310
      5 C         141.0798  142.1117  166.6370 C.ar    1  UNL1        0.0027
      6 C         140.7504  141.8343  168.0738 C.ar    1  UNL1        0.0001
      7 C         139.8936  140.6567  168.4331 C.ar    1  UNL1        0.0013
      8 C         139.3662  139.7564  167.3555 C.ar    1  UNL1        0.0149
      9 C         139.6956  140.0337  165.9186 C.ar    1  UNL1        0.0554
     10 N         139.0720  139.0183  165.0076 N.am    1  UNL1       -0.2538
     11 C         138.2621  137.9502  165.6809 C.3     1  UNL1        0.1201
     12 C         139.1511  138.9296  163.5123 C.2     1  UNL1        0.2712
     13 O         138.4099  137.7847  162.8880 O.2     1  UNL1       -0.2705
     14 N         138.9831  140.0617  158.6979 N.am    1  UNL1       -0.2683
     15 C         139.0974  140.4214  160.1497 C.2     1  UNL1        0.3061
     16 O         138.5501  141.7276  160.6441 O.2     1  UNL1       -0.2524
     17 N         139.7591  139.4750  161.1070 N.am    1  UNL1       -0.2638
     18 H         139.3423  139.2045  158.3734 H       1  UNL1        0.1564
     19 H         140.1183  138.6177  160.7825 H       1  UNL1        0.1531
     20 C         135.0151  141.2440  155.5584 C.3     1  UNL1        0.0311
     21 C         136.3374  141.5994  156.1709 C.ar    1  UNL1       -0.0206
     22 C         136.9981  142.9012  155.8261 C.ar    1  UNL1       -0.0042
     23 C         138.3204  143.2565  156.4386 C.ar    1  UNL1        0.0010
     24 C         138.9821  142.3100  157.3959 C.ar    1  UNL1        0.0147
     25 C         138.3214  141.0082  157.7406 C.ar    1  UNL1        0.0513
     26 C         136.9991  140.6529  157.1281 C.ar    1  UNL1        0.0105
     27 C         141.8579  142.8925  164.1732 C.ar    1  UNL1        0.0174
     28 C         143.3219  142.7893  164.4830 C.ar    1  UNL1        0.0015
     29 C         144.1827  144.0175  164.4558 C.ar    1  UNL1        0.0000
     30 C         143.5794  145.3489  164.1188 C.ar    1  UNL1        0.0000
     31 C         142.1155  145.4521  163.8089 C.ar    1  UNL1        0.0000
     32 C         141.2546  144.2240  163.8361 C.ar    1  UNL1        0.0015
@<TRIPOS>BOND
     1    20    21    1
     2    21    22   ar
     3    22    23   ar
     4    23    24   ar
     5    24    25   ar
     6    25    14    1
     7    14    15   am
     8    15    16    2
     9    15    17   am
    10     1    17    1
    11     1     2    1
    12     2     3    2
    13     3    27    1
    14    27    28   ar
    15    28    29   ar
    16    29    30   ar
    17    30    31   ar
    18    31    32   ar
    19     3     4    1
    20     4     5   ar
    21     5     6   ar
    22     6     7   ar
    23     7     8   ar
    24     8     9   ar
    25     9    10    1
    26    10    11    1
    27    10    12   am
    28    12    13    2
    29    25    26   ar
    30    26    21   ar
    31    12     1    1
    32    32    27   ar
    33     9     4   ar
    34    14    18    1
    35    17    19    1
@<TRIPOS>MOLECULE
*****
 32 35 0 0 0
SMALL
GASTEIGER

@<TRIPOS>ATOM
      1 C         140.9671  144.0181  161.2055 C.3     1  UNL1        0.2563
      2 N         141.6523  142.6838  161.2250 N.2     1  UNL1       -0.2434
      3 C         141.2967  141.4615  162.0183 C.2     1  UNL1        0.0795
      4 C         140.1683  141.2714  162.9881 C.ar    1  UNL1        0.0310
      5 C         140.1704  139.8876  163.5670 C.ar    1  UNL1        0.0027
      6 C         139.1209  139.4893  164.5619 C.ar    1  UNL1        0.0001
      7 C         138.0693  140.4747  164.9779 C.ar    1  UNL1        0.0013
      8 C         138.0671  141.8584  164.3990 C.ar    1  UNL1        0.0149
      9 C         139.1166  142.2568  163.4041 C.ar    1  UNL1        0.0554
     10 N         138.9337  143.6756  162.9530 N.am    1  UNL1       -0.2538
     11 C         137.7739  144.4073  163.5608 C.3     1  UNL1        0.1201
     12 C         139.7572  144.4595  161.9746 C.2     1  UNL1        0.2712
     13 O         139.3121  145.8714  161.7333 O.2     1  UNL1       -0.2705
     14 N         141.8910  146.0371  157.9162 N.am    1  UNL1       -0.2683
     15 C         141.2864  145.0081  158.8248 C.2     1  UNL1        0.3061
     16 O         140.3962  143.9403  158.2614 O.2     1  UNL1       -0.2524
     17 N         141.5718  145.0470  160.2969 N.am    1  UNL1       -0.2638
     18 H         142.4753  146.7379  158.2859 H       1  UNL1        0.1564
     19 H         142.1560  145.7479  160.6667 H       1  UNL1        0.1531
     20 C         143.0922  144.3747  153.1419 C.3     1  UNL1        0.0311
     21 C         142.2062  145.1669  154.0569 C.ar    1  UNL1       -0.0206
     22 C         141.0347  145.9203  153.4999 C.ar    1  UNL1       -0.0042
     23 C         140.1487  146.7125  154.4149 C.ar    1  UNL1        0.0010
     24 C         140.4342  146.7514  155.8870 C.ar    1  UNL1        0.0147
     25 C         141.6056  145.9981  156.4440 C.ar    1  UNL1        0.0513
     26 C         142.4916  145.2059  155.5290 C.ar    1  UNL1        0.0105
     27 C         142.1874  140.2718  161.8149 C.ar    1  UNL1        0.0174
     28 C         143.3767  140.0644  162.7053 C.ar    1  UNL1        0.0015
     29 C         144.2674  138.8747  162.5019 C.ar    1  UNL1        0.0000
     30 C         143.9688  137.8925  161.4082 C.ar    1  UNL1        0.0000
     31 C         142.7796  138.0999  160.5180 C.ar    1  UNL1        0.0000
     32 C         141.8889  139.2895  160.7213 C.ar    1  UNL1        0.0015
@<TRIPOS>BOND
     1    20    21    1
     2    21    22   ar
     3    22    23   ar
     4    23    24   ar
     5    24    25   ar
     6    25    14    1
     7    14    15   am
     8    15    16    2
     9    15    17   am
    10     1    17    1
    11     1     2    1
    12     2     3    2
    13     3    27    1
    14    27    28   ar
    15    28    29   ar
    16    29    30   ar
    17    30    31   ar
    18    31    32   ar
    19     3     4    1
    20     4     5   ar
    21     5     6   ar
    22     6     7   ar
    23     7     8   ar
    24     8     9   ar
    25     9    10    1
    26    10    11    1
    27    10    12   am
    28    12    13    2
    29    25    26   ar
    30    26    21   ar
    31    12     1    1
    32    32    27   ar
    33     9     4   ar
    34    14    18    1
    35    17    19    1
@<TRIPOS>MOLECULE
*****
 32 35 0 0 0
SMALL
GASTEIGER

@<TRIPOS>ATOM
      1 C         142.5964  141.9386  160.9491 C.3     1  UNL1        0.2563
      2 N         141.6006  142.5429  161.8942 N.2     1  UNL1       -0.2434
      3 C         140.8070  141.8683  162.9736 C.2     1  UNL1        0.0795
      4 C         140.8131  140.4229  163.3746 C.ar    1  UNL1        0.0310
      5 C         139.8659  140.1648  164.5086 C.ar    1  UNL1        0.0027
      6 C         139.7200  138.7787  165.0632 C.ar    1  UNL1        0.0001
      7 C         140.5214  137.6509  164.4838 C.ar    1  UNL1        0.0013
      8 C         141.4686  137.9090  163.3497 C.ar    1  UNL1        0.0149
      9 C         141.6145  139.2951  162.7952 C.ar    1  UNL1        0.0554
     10 N         142.6076  139.3341  161.6716 N.am    1  UNL1       -0.2538
     11 C         143.2484  138.0233  161.3236 C.3     1  UNL1        0.1201
     12 C         143.0446  140.5105  160.8500 C.2     1  UNL1        0.2712
     13 O         144.0646  140.2206  159.7892 O.2     1  UNL1       -0.2705
     14 N         143.0468  144.4056  157.8732 N.am    1  UNL1       -0.2683
     15 C         142.4157  143.4563  158.8482 C.2     1  UNL1        0.3061
     16 O         140.9727  143.0754  158.6971 O.2     1  UNL1       -0.2524
     17 N         143.2275  142.8879  159.9742 N.am    1  UNL1       -0.2638
     18 H         143.9939  144.6556  157.9724 H       1  UNL1        0.1564
     19 H         144.1746  143.1379  160.0733 H       1  UNL1        0.1531
     20 C         139.1459  147.4060  156.2057 C.3     1  UNL1        0.0311
     21 C         140.2845  146.4742  155.9135 C.ar    1  UNL1       -0.0206
     22 C         140.6112  146.1108  154.4953 C.ar    1  UNL1       -0.0042
     23 C         141.7498  145.1790  154.2031 C.ar    1  UNL1        0.0010
     24 C         142.5617  144.6106  155.3291 C.ar    1  UNL1        0.0147
     25 C         142.2350  144.9740  156.7472 C.ar    1  UNL1        0.0513
     26 C         141.0964  145.9058  157.0394 C.ar    1  UNL1        0.0105
     27 C         139.8853  142.7567  163.7555 C.ar    1  UNL1        0.0174
     28 C         140.3819  143.4546  164.9869 C.ar    1  UNL1        0.0015
     29 C         139.4602  144.3429  165.7688 C.ar    1  UNL1        0.0000
     30 C         138.0419  144.5334  165.3193 C.ar    1  UNL1        0.0000
     31 C         137.5453  143.8356  164.0879 C.ar    1  UNL1        0.0000
     32 C         138.4669  142.9472  163.3060 C.ar    1  UNL1        0.0015
@<TRIPOS>BOND
     1    20    21    1
     2    21    22   ar
     3    22    23   ar
     4    23    24   ar
     5    24    25   ar
     6    25    14    1
     7    14    15   am
     8    15    16    2
     9    15    17   am
    10     1    17    1
    11     1     2    1
    12     2     3    2
    13     3    27    1
    14    27    28   ar
    15    28    29   ar
    16    29    30   ar
    17    30    31   ar
    18    31    32   ar
    19     3     4    1
    20     4     5   ar
    21     5     6   ar
    22     6     7   ar
    23     7     8   ar
    24     8     9   ar
    25     9    10    1
    26    10    11    1
    27    10    12   am
    28    12    13    2
    29    25    26   ar
    30    26    21   ar
    31    12     1    1
    32    32    27   ar
    33     9     4   ar
    34    14    18    1
    35    17    19    1
@<TRIPOS>MOLECULE
*****
 32 35 0 0 0
SMALL
GASTEIGER

@<TRIPOS>ATOM
      1 C         139.4289  139.5251  165.5408 C.3     1  UNL1        0.2563
      2 N         140.7836  140.0467  165.1630 N.2     1  UNL1       -0.2434
      3 C         141.8371  140.6419  166.0495 C.2     1  UNL1        0.0795
      4 C         141.7961  140.8626  167.5327 C.ar    1  UNL1        0.0310
      5 C         143.0659  141.4881  168.0290 C.ar    1  UNL1        0.0027
      6 C         143.2310  141.7935  169.4882 C.ar    1  UNL1        0.0001
      7 C         142.1263  141.4734  170.4511 C.ar    1  UNL1        0.0013
      8 C         140.8566  140.8479  169.9548 C.ar    1  UNL1        0.0149
      9 C         140.6914  140.5425  168.4956 C.ar    1  UNL1        0.0554
     10 N         139.3550  139.9227  168.2132 N.am    1  UNL1       -0.2538
     11 C         138.4624  139.7303  169.4033 C.3     1  UNL1        0.1201
     12 C         138.7930  139.4699  166.8982 C.2     1  UNL1        0.2712
     13 O         137.4129  138.8846  166.9471 O.2     1  UNL1       -0.2705
     14 N         138.1435  138.7647  161.8639 N.am    1  UNL1       -0.2683
     15 C         138.9720  139.3022  162.9929 C.2     1  UNL1        0.3061
     16 O         140.1720  140.1543  162.7031 O.2     1  UNL1       -0.2524
     17 N         138.6004  138.9877  164.4117 N.am    1  UNL1       -0.2638
     18 H         137.3559  138.2055  162.0540 H       1  UNL1        0.1564
     19 H         137.8128  138.4284  164.6019 H       1  UNL1        0.1531
     20 C         137.4953  141.6166  157.5689 C.3     1  UNL1        0.0311
     21 C         138.1909  140.5053  158.2976 C.ar    1  UNL1       -0.0206
     22 C         139.2582  139.7086  157.6074 C.ar    1  UNL1       -0.0042
     23 C         139.9539  138.5972  158.3361 C.ar    1  UNL1        0.0010
     24 C         139.5823  138.2826  159.7550 C.ar    1  UNL1        0.0147
     25 C         138.5151  139.0793  160.4450 C.ar    1  UNL1        0.0513
     26 C         137.8194  140.1907  159.7163 C.ar    1  UNL1        0.0105
     27 C         143.0984  141.0736  165.3620 C.ar    1  UNL1        0.0174
     28 C         144.0531  140.0453  164.8316 C.ar    1  UNL1        0.0015
     29 C         145.3145  140.4770  164.1440 C.ar    1  UNL1        0.0000
     30 C         145.6211  141.9369  163.9869 C.ar    1  UNL1        0.0000
     31 C         144.6665  142.9651  164.5172 C.ar    1  UNL1        0.0000
     32 C         143.4051  142.5335  165.2048 C.ar    1  UNL1        0.0015
@<TRIPOS>BOND
     1    20    21    1
     2    21    22   ar
     3    22    23   ar
     4    23    24   ar
     5    24    25   ar
     6    25    14    1
     7    14    15   am
     8    15    16    2
     9    15    17   am
    10     1    17    1
    11     1     2    1
    12     2     3    2
    13     3    27    1
    14    27    28   ar
    15    28    29   ar
    16    29    30   ar
    17    30    31   ar
    18    31    32   ar
    19     3     4    1
    20     4     5   ar
    21     5     6   ar
    22     6     7   ar
    23     7     8   ar
    24     8     9   ar
    25     9    10    1
    26    10    11    1
    27    10    12   am
    28    12    13    2
    29    25    26   ar
    30    26    21   ar
    31    12     1    1
    32    32    27   ar
    33     9     4   ar
    34    14    18    1
    35    17    19    1
@<TRIPOS>MOLECULE
*****
 32 35 0 0 0
SMALL
GASTEIGER

@<TRIPOS>ATOM
      1 C         139.8155  139.7539  162.0105 C.3     1  UNL1        0.2563
      2 N         140.6110  140.9871  162.3211 N.2     1  UNL1       -0.2434
      3 C         140.9769  141.5508  163.6621 C.2     1  UNL1        0.0795
      4 C         140.6379  141.0206  165.0237 C.ar    1  UNL1        0.0310
      5 C         141.2015  141.8917  166.1069 C.ar    1  UNL1        0.0027
      6 C         140.9764  141.5379  167.5471 C.ar    1  UNL1        0.0001
      7 C         140.1876  140.3129  167.9040 C.ar    1  UNL1        0.0013
      8 C         139.6241  139.4418  166.8207 C.ar    1  UNL1        0.0149
      9 C         139.8492  139.7957  165.3806 C.ar    1  UNL1        0.0554
     10 N         139.2047  138.7984  164.4640 N.am    1  UNL1       -0.2538
     11 C         138.4792  137.6706  165.1361 C.3     1  UNL1        0.1201
     12 C         139.1897  138.7798  162.9642 C.2     1  UNL1        0.2712
     13 O         138.4512  137.6359  162.3349 O.2     1  UNL1       -0.2705
     14 N         140.5934  138.7418  158.2528 N.am    1  UNL1       -0.2683
     15 C         140.7888  139.0405  159.7097 C.2     1  UNL1        0.3061
     16 O         142.1529  138.9244  160.3227 O.2     1  UNL1       -0.2524
     17 N         139.6201  139.4552  160.5536 N.am    1  UNL1       -0.2638
     18 H         139.6981  138.8180  157.8504 H       1  UNL1        0.1564
     19 H         138.7248  139.5314  160.1512 H       1  UNL1        0.1531
     20 C         143.6825  135.0149  156.3638 C.3     1  UNL1        0.0311
     21 C         143.3066  136.4636  156.4644 C.ar    1  UNL1       -0.0206
     22 C         144.0996  137.4975  155.7211 C.ar    1  UNL1       -0.0042
     23 C         143.7237  138.9462  155.8218 C.ar    1  UNL1        0.0010
     24 C         142.5550  139.3609  156.6657 C.ar    1  UNL1        0.0147
     25 C         141.7621  138.3270  157.4089 C.ar    1  UNL1        0.0513
     26 C         142.1380  136.8784  157.3083 C.ar    1  UNL1        0.0105
     27 C         141.7894  142.8116  163.6383 C.ar    1  UNL1        0.0174
     28 C         141.1036  144.1455  163.6165 C.ar    1  UNL1        0.0015
     29 C         141.9160  145.4062  163.5928 C.ar    1  UNL1        0.0000
     30 C         143.4142  145.3330  163.5909 C.ar    1  UNL1        0.0000
     31 C         144.1000  143.9992  163.6127 C.ar    1  UNL1        0.0000
     32 C         143.2876  142.7385  163.6364 C.ar    1  UNL1        0.0015
@<TRIPOS>BOND
     1    20    21    1
     2    21    22   ar
     3    22    23   ar
     4    23    24   ar
     5    24    25   ar
     6    25    14    1
     7    14    15   am
     8    15    16    2
     9    15    17   am
    10     1    17    1
    11     1     2    1
    12     2     3    2
    13     3    27    1
    14    27    28   ar
    15    28    29   ar
    16    29    30   ar
    17    30    31   ar
    18    31    32   ar
    19     3     4    1
    20     4     5   ar
    21     5     6   ar
    22     6     7   ar
    23     7     8   ar
    24     8     9   ar
    25     9    10    1
    26    10    11    1
    27    10    12   am
    28    12    13    2
    29    25    26   ar
    30    26    21   ar
    31    12     1    1
    32    32    27   ar
    33     9     4   ar
    34    14    18    1
    35    17    19    1
@<TRIPOS>MOLECULE
*****
 32 35 0 0 0
SMALL
GASTEIGER

@<TRIPOS>ATOM
      1 C         140.8383  144.8374  159.4855 C.3     1  UNL1        0.2563
      2 N         141.7889  143.8912  158.8140 N.2     1  UNL1       -0.2434
      3 C         142.9162  143.1102  159.4216 C.2     1  UNL1        0.0795
      4 C         143.3713  143.0824  160.8507 C.ar    1  UNL1        0.0310
      5 C         144.5419  142.1629  161.0353 C.ar    1  UNL1        0.0027
      6 C         145.1527  141.9899  162.3943 C.ar    1  UNL1        0.0001
      7 C         144.5928  142.7363  163.5687 C.ar    1  UNL1        0.0013
      8 C         143.4222  143.6558  163.3842 C.ar    1  UNL1        0.0149
      9 C         142.8114  143.8288  162.0251 C.ar    1  UNL1        0.0554
     10 N         141.6582  144.7874  162.0605 N.am    1  UNL1       -0.2538
     11 C         141.3412  145.3748  163.4039 C.3     1  UNL1        0.1201
     12 C         140.7800  145.2363  160.9304 C.2     1  UNL1        0.2712
     13 O         139.7011  146.2132  161.2929 O.2     1  UNL1       -0.2705
     14 N         139.2065  146.8065  156.4507 N.am    1  UNL1       -0.2683
     15 C         140.2350  146.1757  157.3419 C.2     1  UNL1        0.3061
     16 O         141.6889  146.2525  156.9807 O.2     1  UNL1       -0.2524
     17 N         139.8097  145.4682  158.5943 N.am    1  UNL1       -0.2638
     18 H         138.2523  146.7561  156.6877 H       1  UNL1        0.1564
     19 H         138.8555  145.4178  158.8313 H       1  UNL1        0.1531
     20 C         139.3712  151.1153  153.5512 C.3     1  UNL1        0.0311
     21 C         139.7142  149.6685  153.7486 C.ar    1  UNL1       -0.0206
     22 C         140.4826  148.9292  152.6935 C.ar    1  UNL1       -0.0042
     23 C         140.8256  147.4823  152.8909 C.ar    1  UNL1        0.0010
     24 C         140.4003  146.7747  154.1433 C.ar    1  UNL1        0.0147
     25 C         139.6319  147.5140  155.1983 C.ar    1  UNL1        0.0513
     26 C         139.2889  148.9609  155.0009 C.ar    1  UNL1        0.0105
     27 C         143.6910  142.2420  158.4750 C.ar    1  UNL1        0.0174
     28 C         143.1623  140.8913  158.0926 C.ar    1  UNL1        0.0015
     29 C         143.9371  140.0232  157.1459 C.ar    1  UNL1        0.0000
     30 C         145.2404  140.5058  156.5816 C.ar    1  UNL1        0.0000
     31 C         145.7690  141.8564  156.9639 C.ar    1  UNL1        0.0000
     32 C         144.9943  142.7246  157.9106 C.ar    1  UNL1        0.0015
@<TRIPOS>BOND
     1    20    21    1
     2    21    22   ar
     3    22    23   ar
     4    23    24   ar
     5    24    25   ar
     6    25    14    1
     7    14    15   am
     8    15    16    2
     9    15    17   am
    10     1    17    1
    11     1     2    1
    12     2     3    2
    13     3    27    1
    14    27    28   ar
    15    28    29   ar
    16    29    30   ar
    17    30    31   ar
    18    31    32   ar
    19     3     4    1
    20     4     5   ar
    21     5     6   ar
    22     6     7   ar
    23     7     8   ar
    24     8     9   ar
    25     9    10    1
    26    10    11    1
    27    10    12   am
    28    12    13    2
    29    25    26   ar
    30    26    21   ar
    31    12     1    1
    32    32    27   ar
    33     9     4   ar
    34    14    18    1
    35    17    19    1
