@<TRIPOS>MOLECULE
*****
 31 35 0 0 0
SMALL
GASTEIGER

@<TRIPOS>ATOM
      1 C         142.5673  140.0518  165.4193 C.3     1  UNL1        0.1184
      2 S         142.6147  139.3709  166.7549 S.3     1  UNL1       -0.1030
      3 C         142.5379  140.1828  168.0139 C.ar    1  UNL1        0.0596
      4 C         142.5854  139.5018  169.3495 C.ar    1  UNL1        0.0092
      5 C         142.5086  140.3137  170.6084 C.ar    1  UNL1        0.0007
      6 C         142.3844  141.8066  170.5317 C.ar    1  UNL1        0.0031
      7 C         142.3369  142.4875  169.1961 C.ar    1  UNL1        0.0374
      8 C         142.4137  141.6756  167.9372 C.ar    1  UNL1        0.1445
      9 O         142.3662  142.3566  166.6014 O.3     1  UNL1       -0.4730
     10 C         142.4430  141.5447  165.3425 C.3     1  UNL1        0.2023
     11 C         142.7977  137.6163  161.6424 C.ar    1  UNL1       -0.0000
     12 C         141.5418  137.6115  162.4625 C.ar    1  UNL1       -0.0003
     13 C         141.4649  138.4233  163.7214 C.ar    1  UNL1       -0.0033
     14 C         142.6441  139.2399  164.1603 C.ar    1  UNL1       -0.0083
     15 C         143.9000  139.2448  163.3402 C.ar    1  UNL1       -0.0033
     16 C         143.9769  138.4329  162.0813 C.ar    1  UNL1       -0.0003
     17 C         142.3956  142.2257  164.0068 C.ar    1  UNL1        0.0186
     18 C         141.3284  141.8624  163.0173 C.ar    1  UNL1        0.0023
     19 C         141.2809  142.5433  161.6816 C.ar    1  UNL1        0.0367
     20 C         142.3006  143.5875  161.3355 C.ar    1  UNL1        0.1385
     21 C         143.3678  143.9508  162.3250 C.ar    1  UNL1        0.0367
     22 C         143.4153  143.2699  163.6607 C.ar    1  UNL1        0.0023
     23 O         142.2531  144.2685  159.9997 O.3     1  UNL1       -0.4754
     24 C         141.3381  145.4377  159.7861 C.3     1  UNL1        0.2068
     25 C         139.9660  145.4368  160.3921 C.3     1  UNL1        0.0646
     26 C         139.7331  146.0899  161.7222 C.3     1  UNL1        0.0759
     27 N         139.3100  145.2630  162.9000 N.3     1  UNL1       -0.2726
     28 C         140.0813  145.0838  164.1741 C.3     1  UNL1        0.0721
     29 C         139.2894  144.1802  165.0721 C.3     1  UNL1        0.0188
     30 C         138.0288  143.8008  164.3530 C.3     1  UNL1        0.0188
     31 C         138.0415  144.4701  163.0106 C.3     1  UNL1        0.0721
@<TRIPOS>BOND
     1    11    12   ar
     2    12    13   ar
     3    13    14   ar
     4     1    14    1
     5     1     2    1
     6     2     3    1
     7     3     4   ar
     8     4     5   ar
     9     5     6   ar
    10     6     7   ar
    11     7     8   ar
    12     8     9    1
    13     9    10    1
    14    10    17    1
    15    17    18   ar
    16    18    19   ar
    17    19    20   ar
    18    20    23    1
    19    23    24    1
    20    24    25    1
    21    25    26    1
    22    26    27    1
    23    27    28    1
    24    28    29    1
    25    29    30    1
    26    30    31    1
    27    20    21   ar
    28    21    22   ar
    29    14    15   ar
    30    15    16   ar
    31    16    11   ar
    32    10     1    1
    33    22    17   ar
    34     8     3   ar
    35    31    27    1
@<TRIPOS>MOLECULE
*****
 31 35 0 0 0
SMALL
GASTEIGER

@<TRIPOS>ATOM
      1 C         142.0573  142.3162  165.9801 C.3     1  UNL1        0.1184
      2 S         142.6947  142.0717  167.3157 S.3     1  UNL1       -0.1030
      3 C         141.8945  141.4621  168.4284 C.ar    1  UNL1        0.0596
      4 C         142.5319  141.2177  169.7640 C.ar    1  UNL1        0.0092
      5 C         141.7316  140.6081  170.8766 C.ar    1  UNL1        0.0007
      6 C         140.2939  140.2428  170.6536 C.ar    1  UNL1        0.0031
      7 C         139.6565  140.4873  169.3179 C.ar    1  UNL1        0.0374
      8 C         140.4568  141.0969  168.2054 C.ar    1  UNL1        0.1445
      9 O         139.8194  141.3413  166.8696 O.3     1  UNL1       -0.4730
     10 C         140.6197  141.9509  165.7571 C.3     1  UNL1        0.2023
     11 C         144.4581  144.1450  162.6422 C.ar    1  UNL1       -0.0000
     12 C         143.3676  144.9357  163.3022 C.ar    1  UNL1       -0.0003
     13 C         142.5673  144.3261  164.4148 C.ar    1  UNL1       -0.0033
     14 C         142.8576  142.9258  164.8674 C.ar    1  UNL1       -0.0083
     15 C         143.9481  142.1351  164.2074 C.ar    1  UNL1       -0.0033
     16 C         144.7484  142.7447  163.0948 C.ar    1  UNL1       -0.0003
     17 C         139.9823  142.1954  164.4213 C.ar    1  UNL1        0.0186
     18 C         138.7692  143.0716  164.3183 C.ar    1  UNL1        0.0023
     19 C         138.1318  143.3161  162.9827 C.ar    1  UNL1        0.0367
     20 C         138.7075  142.6843  161.7501 C.ar    1  UNL1        0.1385
     21 C         139.9206  141.8081  161.8531 C.ar    1  UNL1        0.0367
     22 C         140.5580  141.5636  163.1887 C.ar    1  UNL1        0.0023
     23 O         138.0701  142.9288  160.4144 O.3     1  UNL1       -0.4754
     24 C         138.5259  142.1549  159.2130 C.3     1  UNL1        0.2068
     25 C         137.9656  140.7899  158.9432 C.3     1  UNL1        0.0646
     26 C         138.8361  139.5780  159.0970 C.3     1  UNL1        0.0759
     27 N         138.9786  138.9223  160.4385 N.3     1  UNL1       -0.2726
     28 C         137.8967  138.7745  161.4671 C.3     1  UNL1        0.0721
     29 C         138.4775  138.0601  162.6513 C.3     1  UNL1        0.0188
     30 C         139.9183  137.7665  162.3547 C.3     1  UNL1        0.0188
     31 C         140.2280  138.2994  160.9871 C.3     1  UNL1        0.0721
@<TRIPOS>BOND
     1    11    12   ar
     2    12    13   ar
     3    13    14   ar
     4     1    14    1
     5     1     2    1
     6     2     3    1
     7     3     4   ar
     8     4     5   ar
     9     5     6   ar
    10     6     7   ar
    11     7     8   ar
    12     8     9    1
    13     9    10    1
    14    10    17    1
    15    17    18   ar
    16    18    19   ar
    17    19    20   ar
    18    20    23    1
    19    23    24    1
    20    24    25    1
    21    25    26    1
    22    26    27    1
    23    27    28    1
    24    28    29    1
    25    29    30    1
    26    30    31    1
    27    20    21   ar
    28    21    22   ar
    29    14    15   ar
    30    15    16   ar
    31    16    11   ar
    32    10     1    1
    33    22    17   ar
    34     8     3   ar
    35    31    27    1
@<TRIPOS>MOLECULE
*****
 31 35 0 0 0
SMALL
GASTEIGER

@<TRIPOS>ATOM
      1 C         140.2210  141.8072  166.2011 C.3     1  UNL1        0.1184
      2 S         140.3530  142.2407  167.6310 S.3     1  UNL1       -0.1030
      3 C         141.1563  141.4170  168.5934 C.ar    1  UNL1        0.0596
      4 C         141.2883  141.8505  170.0232 C.ar    1  UNL1        0.0092
      5 C         142.0917  141.0269  170.9855 C.ar    1  UNL1        0.0007
      6 C         142.7631  139.7696  170.5180 C.ar    1  UNL1        0.0031
      7 C         142.6311  139.3361  169.0881 C.ar    1  UNL1        0.0374
      8 C         141.8277  140.1598  168.1258 C.ar    1  UNL1        0.1445
      9 O         141.6957  139.7262  166.6958 O.3     1  UNL1       -0.4730
     10 C         140.8923  140.5499  165.7335 C.3     1  UNL1        0.2023
     11 C         137.8110  144.2783  163.3140 C.ar    1  UNL1       -0.0000
     12 C         137.3480  142.9024  163.6918 C.ar    1  UNL1       -0.0003
     13 C         138.1513  142.0787  164.6542 C.ar    1  UNL1       -0.0033
     14 C         139.4176  142.6309  165.2387 C.ar    1  UNL1       -0.0083
     15 C         139.8805  144.0067  164.8608 C.ar    1  UNL1       -0.0033
     16 C         139.0772  144.8304  163.8985 C.ar    1  UNL1       -0.0003
     17 C         140.7603  140.1164  164.3036 C.ar    1  UNL1        0.0186
     18 C         141.1170  141.0638  163.1967 C.ar    1  UNL1        0.0023
     19 C         140.9850  140.6303  161.7668 C.ar    1  UNL1        0.0367
     20 C         140.4963  139.2495  161.4438 C.ar    1  UNL1        0.1385
     21 C         140.1397  138.3021  162.5507 C.ar    1  UNL1        0.0367
     22 C         140.2716  138.7355  163.9806 C.ar    1  UNL1        0.0023
     23 O         140.3643  138.8159  160.0138 O.3     1  UNL1       -0.4754
     24 C         141.5906  138.5015  159.2092 C.3     1  UNL1        0.2068
     25 C         142.8610  138.1060  159.9017 C.3     1  UNL1        0.0646
     26 C         143.8924  139.1453  160.2277 C.3     1  UNL1        0.0759
     27 N         144.1807  139.4931  161.6580 N.3     1  UNL1       -0.2726
     28 C         143.9582  138.6021  162.8441 C.3     1  UNL1        0.0721
     29 C         144.3820  139.3513  164.0726 C.3     1  UNL1        0.0188
     30 C         144.8665  140.7052  163.6458 C.3     1  UNL1        0.0188
     31 C         144.7421  140.7928  162.1534 C.3     1  UNL1        0.0721
@<TRIPOS>BOND
     1    11    12   ar
     2    12    13   ar
     3    13    14   ar
     4     1    14    1
     5     1     2    1
     6     2     3    1
     7     3     4   ar
     8     4     5   ar
     9     5     6   ar
    10     6     7   ar
    11     7     8   ar
    12     8     9    1
    13     9    10    1
    14    10    17    1
    15    17    18   ar
    16    18    19   ar
    17    19    20   ar
    18    20    23    1
    19    23    24    1
    20    24    25    1
    21    25    26    1
    22    26    27    1
    23    27    28    1
    24    28    29    1
    25    29    30    1
    26    30    31    1
    27    20    21   ar
    28    21    22   ar
    29    14    15   ar
    30    15    16   ar
    31    16    11   ar
    32    10     1    1
    33    22    17   ar
    34     8     3   ar
    35    31    27    1
@<TRIPOS>MOLECULE
*****
 31 35 0 0 0
SMALL
GASTEIGER

@<TRIPOS>ATOM
      1 C         139.9481  141.1599  165.9378 C.3     1  UNL1        0.1184
      2 S         140.0889  140.2729  167.1392 S.3     1  UNL1       -0.1030
      3 C         140.3133  140.8757  168.4944 C.ar    1  UNL1        0.0596
      4 C         140.4541  139.9887  169.6957 C.ar    1  UNL1        0.0092
      5 C         140.6785  140.5915  171.0508 C.ar    1  UNL1        0.0007
      6 C         140.7620  142.0812  171.2045 C.ar    1  UNL1        0.0031
      7 C         140.6211  142.9682  170.0031 C.ar    1  UNL1        0.0374
      8 C         140.3968  142.3654  168.6481 C.ar    1  UNL1        0.1445
      9 O         140.2559  143.2524  167.4466 O.3     1  UNL1       -0.4730
     10 C         140.0316  142.6497  166.0915 C.3     1  UNL1        0.2023
     11 C         139.2750  139.3516  161.8725 C.ar    1  UNL1       -0.0000
     12 C         140.6483  139.8005  162.2756 C.ar    1  UNL1       -0.0003
     13 C         140.8727  140.4033  163.6307 C.ar    1  UNL1       -0.0033
     14 C         139.7237  140.5571  164.5826 C.ar    1  UNL1       -0.0083
     15 C         138.3504  140.1083  164.1795 C.ar    1  UNL1       -0.0033
     16 C         138.1260  139.5055  162.8244 C.ar    1  UNL1       -0.0003
     17 C         139.8907  143.5367  164.8900 C.ar    1  UNL1        0.0186
     18 C         138.5444  143.7374  164.2597 C.ar    1  UNL1        0.0023
     19 C         138.4035  144.6243  163.0583 C.ar    1  UNL1        0.0367
     20 C         139.6089  145.3105  162.4872 C.ar    1  UNL1        0.1385
     21 C         140.9552  145.1098  163.1175 C.ar    1  UNL1        0.0367
     22 C         141.0961  144.2228  164.3189 C.ar    1  UNL1        0.0023
     23 O         139.4680  146.1975  161.2857 O.3     1  UNL1       -0.4754
     24 C         140.1157  145.8120  159.9888 C.3     1  UNL1        0.2068
     25 C         140.4443  144.3748  159.7127 C.3     1  UNL1        0.0646
     26 C         141.8039  144.0012  159.2008 C.3     1  UNL1        0.0759
     27 N         142.6360  142.9991  159.9446 N.3     1  UNL1       -0.2726
     28 C         142.8261  141.5591  159.5699 C.3     1  UNL1        0.0721
     29 C         143.7318  140.9310  160.5874 C.3     1  UNL1        0.0188
     30 C         144.1015  141.9828  161.5909 C.3     1  UNL1        0.0188
     31 C         143.4243  143.2610  161.1936 C.3     1  UNL1        0.0721
@<TRIPOS>BOND
     1    11    12   ar
     2    12    13   ar
     3    13    14   ar
     4     1    14    1
     5     1     2    1
     6     2     3    1
     7     3     4   ar
     8     4     5   ar
     9     5     6   ar
    10     6     7   ar
    11     7     8   ar
    12     8     9    1
    13     9    10    1
    14    10    17    1
    15    17    18   ar
    16    18    19   ar
    17    19    20   ar
    18    20    23    1
    19    23    24    1
    20    24    25    1
    21    25    26    1
    22    26    27    1
    23    27    28    1
    24    28    29    1
    25    29    30    1
    26    30    31    1
    27    20    21   ar
    28    21    22   ar
    29    14    15   ar
    30    15    16   ar
    31    16    11   ar
    32    10     1    1
    33    22    17   ar
    34     8     3   ar
    35    31    27    1
@<TRIPOS>MOLECULE
*****
 31 35 0 0 0
SMALL
GASTEIGER

@<TRIPOS>ATOM
      1 C         141.7137  138.2403  158.8343 C.3     1  UNL1        0.1184
      2 S         142.5210  137.5128  157.8004 S.3     1  UNL1       -0.1030
      3 C         141.8573  136.9932  156.5596 C.ar    1  UNL1        0.0596
      4 C         142.6646  136.2657  155.5257 C.ar    1  UNL1        0.0092
      5 C         142.0009  135.7462  154.2849 C.ar    1  UNL1        0.0007
      6 C         140.5299  135.9542  154.0780 C.ar    1  UNL1        0.0031
      7 C         139.7226  136.6817  155.1119 C.ar    1  UNL1        0.0374
      8 C         140.3863  137.2012  156.3527 C.ar    1  UNL1        0.1445
      9 O         139.5789  137.9287  157.3866 O.3     1  UNL1       -0.4730
     10 C         140.2426  138.4482  158.6274 C.3     1  UNL1        0.2023
     11 C         143.7047  139.7990  162.5567 C.ar    1  UNL1       -0.0000
     12 C         143.2118  138.3832  162.5065 C.ar    1  UNL1       -0.0003
     13 C         142.5482  137.8636  161.2657 C.ar    1  UNL1       -0.0033
     14 C         142.3774  138.7598  160.0751 C.ar    1  UNL1       -0.0083
     15 C         142.8702  140.1756  160.1253 C.ar    1  UNL1       -0.0033
     16 C         143.5339  140.6952  161.3661 C.ar    1  UNL1       -0.0003
     17 C         139.4353  139.1758  159.6613 C.ar    1  UNL1        0.0186
     18 C         138.8309  138.4214  160.8083 C.ar    1  UNL1        0.0023
     19 C         138.0236  139.1488  161.8422 C.ar    1  UNL1        0.0367
     20 C         137.8207  140.6307  161.7292 C.ar    1  UNL1        0.1385
     21 C         138.4252  141.3851  160.5822 C.ar    1  UNL1        0.0367
     22 C         139.2325  140.6577  159.5483 C.ar    1  UNL1        0.0023
     23 O         137.0134  141.3583  162.7631 O.3     1  UNL1       -0.4754
     24 C         137.5232  142.6433  163.3450 C.3     1  UNL1        0.2068
     25 C         138.0945  142.6641  164.7318 C.3     1  UNL1        0.0646
     26 C         139.3628  141.9216  165.0317 C.3     1  UNL1        0.0759
     27 N         139.3606  140.4224  165.0805 N.3     1  UNL1       -0.2726
     28 C         138.2414  139.5582  165.5812 C.3     1  UNL1        0.0721
     29 C         138.6663  138.1259  165.4473 C.3     1  UNL1        0.0188
     30 C         140.0480  138.1048  164.8639 C.3     1  UNL1        0.0188
     31 C         140.4772  139.5242  164.6372 C.3     1  UNL1        0.0721
@<TRIPOS>BOND
     1    11    12   ar
     2    12    13   ar
     3    13    14   ar
     4     1    14    1
     5     1     2    1
     6     2     3    1
     7     3     4   ar
     8     4     5   ar
     9     5     6   ar
    10     6     7   ar
    11     7     8   ar
    12     8     9    1
    13     9    10    1
    14    10    17    1
    15    17    18   ar
    16    18    19   ar
    17    19    20   ar
    18    20    23    1
    19    23    24    1
    20    24    25    1
    21    25    26    1
    22    26    27    1
    23    27    28    1
    24    28    29    1
    25    29    30    1
    26    30    31    1
    27    20    21   ar
    28    21    22   ar
    29    14    15   ar
    30    15    16   ar
    31    16    11   ar
    32    10     1    1
    33    22    17   ar
    34     8     3   ar
    35    31    27    1
@<TRIPOS>MOLECULE
*****
 31 35 0 0 0
SMALL
GASTEIGER

@<TRIPOS>ATOM
      1 C         139.9353  141.1241  165.9064 C.3     1  UNL1        0.1184
      2 S         140.0680  140.2483  167.1169 S.3     1  UNL1       -0.1030
      3 C         140.2965  140.8630  168.4660 C.ar    1  UNL1        0.0596
      4 C         140.4292  139.9872  169.6765 C.ar    1  UNL1        0.0092
      5 C         140.6577  140.6019  171.0255 C.ar    1  UNL1        0.0007
      6 C         140.7536  142.0924  171.1640 C.ar    1  UNL1        0.0031
      7 C         140.6209  142.9682  169.9535 C.ar    1  UNL1        0.0374
      8 C         140.3924  142.3535  168.6045 C.ar    1  UNL1        0.1445
      9 O         140.2597  143.2293  167.3940 O.3     1  UNL1       -0.4730
     10 C         140.0312  142.6146  166.0449 C.3     1  UNL1        0.2023
     11 C         139.2498  139.2802  161.8592 C.ar    1  UNL1       -0.0000
     12 C         138.0891  139.5298  162.7760 C.ar    1  UNL1       -0.0003
     13 C         138.3176  140.1445  164.1250 C.ar    1  UNL1       -0.0033
     14 C         139.7068  140.5094  164.5573 C.ar    1  UNL1       -0.0083
     15 C         140.8675  140.2598  163.6406 C.ar    1  UNL1       -0.0033
     16 C         140.6390  139.6451  162.2915 C.ar    1  UNL1       -0.0003
     17 C         139.8985  143.4905  164.8344 C.ar    1  UNL1        0.0186
     18 C         141.1235  144.0633  164.1853 C.ar    1  UNL1        0.0023
     19 C         140.9908  144.9391  162.9748 C.ar    1  UNL1        0.0367
     20 C         139.6333  145.2420  162.4134 C.ar    1  UNL1        0.1385
     21 C         138.4083  144.6692  163.0625 C.ar    1  UNL1        0.0367
     22 C         138.5409  143.7934  164.2730 C.ar    1  UNL1        0.0023
     23 O         139.5006  146.1179  161.2028 O.3     1  UNL1       -0.4754
     24 C         140.1490  145.7156  159.9114 C.3     1  UNL1        0.2068
     25 C         140.0757  144.2911  159.4472 C.3     1  UNL1        0.0646
     26 C         141.3338  143.4927  159.2750 C.3     1  UNL1        0.0759
     27 N         141.2559  142.0209  158.9965 N.3     1  UNL1       -0.2726
     28 C         142.3616  141.0265  159.1938 C.3     1  UNL1        0.0721
     29 C         141.8477  139.6760  158.7911 C.3     1  UNL1        0.0188
     30 C         140.4245  139.8357  158.3450 C.3     1  UNL1        0.0188
     31 C         140.0587  141.2849  158.4720 C.3     1  UNL1        0.0721
@<TRIPOS>BOND
     1    11    12   ar
     2    12    13   ar
     3    13    14   ar
     4     1    14    1
     5     1     2    1
     6     2     3    1
     7     3     4   ar
     8     4     5   ar
     9     5     6   ar
    10     6     7   ar
    11     7     8   ar
    12     8     9    1
    13     9    10    1
    14    10    17    1
    15    17    18   ar
    16    18    19   ar
    17    19    20   ar
    18    20    23    1
    19    23    24    1
    20    24    25    1
    21    25    26    1
    22    26    27    1
    23    27    28    1
    24    28    29    1
    25    29    30    1
    26    30    31    1
    27    20    21   ar
    28    21    22   ar
    29    14    15   ar
    30    15    16   ar
    31    16    11   ar
    32    10     1    1
    33    22    17   ar
    34     8     3   ar
    35    31    27    1
@<TRIPOS>MOLECULE
*****
 31 35 0 0 0
SMALL
GASTEIGER

@<TRIPOS>ATOM
      1 C         140.0381  139.7296  165.1843 C.3     1  UNL1        0.1184
      2 S         139.3976  139.8611  166.5342 S.3     1  UNL1       -0.1030
      3 C         140.2515  140.0116  167.7582 C.ar    1  UNL1        0.0596
      4 C         139.6110  140.1431  169.1081 C.ar    1  UNL1        0.0092
      5 C         140.4650  140.2937  170.3320 C.ar    1  UNL1        0.0007
      6 C         141.9595  140.3128  170.2060 C.ar    1  UNL1        0.0031
      7 C         142.6001  140.1814  168.8561 C.ar    1  UNL1        0.0374
      8 C         141.7461  140.0308  167.6322 C.ar    1  UNL1        0.1445
      9 O         142.3867  139.8993  166.2822 O.3     1  UNL1       -0.4730
     10 C         141.5327  139.7487  165.0583 C.3     1  UNL1        0.2023
     11 C         137.4762  139.2780  161.5125 C.ar    1  UNL1       -0.0000
     12 C         138.0793  138.0667  162.1598 C.ar    1  UNL1       -0.0003
     13 C         138.9333  138.2172  163.3838 C.ar    1  UNL1       -0.0033
     14 C         139.1841  139.5790  163.9603 C.ar    1  UNL1       -0.0083
     15 C         138.5811  140.7903  163.3129 C.ar    1  UNL1       -0.0033
     16 C         137.7271  140.6398  162.0890 C.ar    1  UNL1       -0.0003
     17 C         142.1733  139.6173  163.7083 C.ar    1  UNL1        0.0186
     18 C         142.3535  140.8289  162.8425 C.ar    1  UNL1        0.0023
     19 C         142.9940  140.6975  161.4925 C.ar    1  UNL1        0.0367
     20 C         143.4544  139.3545  161.0084 C.ar    1  UNL1        0.1385
     21 C         143.2742  138.1429  161.8742 C.ar    1  UNL1        0.0367
     22 C         142.6336  138.2743  163.2241 C.ar    1  UNL1        0.0023
     23 O         144.0949  139.2230  159.6584 O.3     1  UNL1       -0.4754
     24 C         143.2473  138.9656  158.4479 C.3     1  UNL1        0.2068
     25 C         142.5418  137.6511  158.2921 C.3     1  UNL1        0.0646
     26 C         142.0031  137.2432  156.9529 C.3     1  UNL1        0.0759
     27 N         142.1456  135.8243  156.4877 N.3     1  UNL1       -0.2726
     28 C         143.0971  134.8059  157.0424 C.3     1  UNL1        0.0721
     29 C         142.9013  133.5269  156.2837 C.3     1  UNL1        0.0188
     30 C         141.8288  133.7548  155.2599 C.3     1  UNL1        0.0188
     31 C         141.3618  135.1747  155.3860 C.3     1  UNL1        0.0721
@<TRIPOS>BOND
     1    11    12   ar
     2    12    13   ar
     3    13    14   ar
     4     1    14    1
     5     1     2    1
     6     2     3    1
     7     3     4   ar
     8     4     5   ar
     9     5     6   ar
    10     6     7   ar
    11     7     8   ar
    12     8     9    1
    13     9    10    1
    14    10    17    1
    15    17    18   ar
    16    18    19   ar
    17    19    20   ar
    18    20    23    1
    19    23    24    1
    20    24    25    1
    21    25    26    1
    22    26    27    1
    23    27    28    1
    24    28    29    1
    25    29    30    1
    26    30    31    1
    27    20    21   ar
    28    21    22   ar
    29    14    15   ar
    30    15    16   ar
    31    16    11   ar
    32    10     1    1
    33    22    17   ar
    34     8     3   ar
    35    31    27    1
@<TRIPOS>MOLECULE
*****
 31 35 0 0 0
SMALL
GASTEIGER

@<TRIPOS>ATOM
      1 C         140.2072  143.7805  160.9911 C.3     1  UNL1        0.1184
      2 S         140.4004  144.9251  160.0410 S.3     1  UNL1       -0.1030
      3 C         141.0892  144.7013  158.7274 C.ar    1  UNL1        0.0596
      4 C         141.2824  145.8459  157.7773 C.ar    1  UNL1        0.0092
      5 C         141.9711  145.6221  156.4638 C.ar    1  UNL1        0.0007
      6 C         142.4667  144.2538  156.1003 C.ar    1  UNL1        0.0031
      7 C         142.2735  143.1093  157.0503 C.ar    1  UNL1        0.0374
      8 C         141.5847  143.3330  158.3639 C.ar    1  UNL1        0.1445
      9 O         141.3915  142.1885  159.3140 O.3     1  UNL1       -0.4730
     10 C         140.7027  142.4122  160.6276 C.3     1  UNL1        0.2023
     11 C         138.1410  144.4517  164.9320 C.ar    1  UNL1       -0.0000
     12 C         137.3808  143.8732  163.7755 C.ar    1  UNL1       -0.0003
     13 C         138.0695  143.6494  162.4619 C.ar    1  UNL1       -0.0033
     14 C         139.5184  144.0043  162.3048 C.ar    1  UNL1       -0.0083
     15 C         140.2786  144.5828  163.4612 C.ar    1  UNL1       -0.0033
     16 C         139.5899  144.8066  164.7748 C.ar    1  UNL1       -0.0003
     17 C         140.5095  141.2676  161.5777 C.ar    1  UNL1        0.0186
     18 C         141.4576  141.0765  162.7243 C.ar    1  UNL1        0.0023
     19 C         141.2644  139.9320  163.6744 C.ar    1  UNL1        0.0367
     20 C         140.1232  138.9786  163.4779 C.ar    1  UNL1        0.1385
     21 C         139.1751  139.1698  162.3313 C.ar    1  UNL1        0.0367
     22 C         139.3683  140.3143  161.3812 C.ar    1  UNL1        0.0023
     23 O         139.9299  137.8340  164.4280 O.3     1  UNL1       -0.4754
     24 C         138.7472  137.8165  165.3505 C.3     1  UNL1        0.2068
     25 C         138.2877  139.0856  166.0049 C.3     1  UNL1        0.0646
     26 C         138.9792  139.5865  167.2381 C.3     1  UNL1        0.0759
     27 N         140.2603  140.3575  167.1187 N.3     1  UNL1       -0.2726
     28 C         140.3834  141.8216  166.8159 C.3     1  UNL1        0.0721
     29 C         141.8424  142.1688  166.7912 C.3     1  UNL1        0.0188
     30 C         142.6212  140.9194  167.0788 C.3     1  UNL1        0.0188
     31 C         141.6434  139.8000  167.2812 C.3     1  UNL1        0.0721
@<TRIPOS>BOND
     1    11    12   ar
     2    12    13   ar
     3    13    14   ar
     4     1    14    1
     5     1     2    1
     6     2     3    1
     7     3     4   ar
     8     4     5   ar
     9     5     6   ar
    10     6     7   ar
    11     7     8   ar
    12     8     9    1
    13     9    10    1
    14    10    17    1
    15    17    18   ar
    16    18    19   ar
    17    19    20   ar
    18    20    23    1
    19    23    24    1
    20    24    25    1
    21    25    26    1
    22    26    27    1
    23    27    28    1
    24    28    29    1
    25    29    30    1
    26    30    31    1
    27    20    21   ar
    28    21    22   ar
    29    14    15   ar
    30    15    16   ar
    31    16    11   ar
    32    10     1    1
    33    22    17   ar
    34     8     3   ar
    35    31    27    1
@<TRIPOS>MOLECULE
*****
 31 35 0 0 0
SMALL
GASTEIGER

@<TRIPOS>ATOM
      1 C         140.3443  139.8155  165.9972 C.3     1  UNL1        0.1184
      2 S         139.6703  139.8805  167.3356 S.3     1  UNL1       -0.1030
      3 C         140.4645  140.2300  168.5592 C.ar    1  UNL1        0.0596
      4 C         139.7904  140.2951  169.8976 C.ar    1  UNL1        0.0092
      5 C         140.5846  140.6445  171.1211 C.ar    1  UNL1        0.0007
      6 C         142.0529  140.9289  171.0062 C.ar    1  UNL1        0.0031
      7 C         142.7270  140.8639  169.6679 C.ar    1  UNL1        0.0374
      8 C         141.9328  140.5144  168.4443 C.ar    1  UNL1        0.1445
      9 O         142.6069  140.4494  167.1058 O.3     1  UNL1       -0.4730
     10 C         141.8126  140.0999  165.8823 C.3     1  UNL1        0.2023
     11 C         137.9617  138.7672  162.3265 C.ar    1  UNL1       -0.0000
     12 C         138.7240  137.7008  163.0557 C.ar    1  UNL1       -0.0003
     13 C         139.5181  138.0502  164.2793 C.ar    1  UNL1       -0.0033
     14 C         139.5501  139.4660  164.7736 C.ar    1  UNL1       -0.0083
     15 C         138.7879  140.5324  164.0443 C.ar    1  UNL1       -0.0033
     16 C         137.9937  140.1830  162.8208 C.ar    1  UNL1       -0.0003
     17 C         142.4867  140.0348  164.5438 C.ar    1  UNL1        0.0186
     18 C         143.1189  138.7547  164.0839 C.ar    1  UNL1        0.0023
     19 C         143.7930  138.6896  162.7456 C.ar    1  UNL1        0.0367
     20 C         143.8348  139.9046  161.8670 C.ar    1  UNL1        0.1385
     21 C         143.2027  141.1848  162.3269 C.ar    1  UNL1        0.0367
     22 C         142.5286  141.2499  163.6653 C.ar    1  UNL1        0.0023
     23 O         144.5089  139.8396  160.5286 O.3     1  UNL1       -0.4754
     24 C         143.6887  139.8759  159.2732 C.3     1  UNL1        0.2068
     25 C         142.7705  138.7365  158.9440 C.3     1  UNL1        0.0646
     26 C         141.4753  138.5790  159.6840 C.3     1  UNL1        0.0759
     27 N         140.3721  139.5757  159.4853 N.3     1  UNL1       -0.2726
     28 C         139.1162  139.3551  158.6952 C.3     1  UNL1        0.0721
     29 C         138.2989  140.6110  158.7634 C.3     1  UNL1        0.0188
     30 C         139.0496  141.6079  159.5957 C.3     1  UNL1        0.0188
     31 C         140.3309  140.9680  160.0418 C.3     1  UNL1        0.0721
@<TRIPOS>BOND
     1    11    12   ar
     2    12    13   ar
     3    13    14   ar
     4     1    14    1
     5     1     2    1
     6     2     3    1
     7     3     4   ar
     8     4     5   ar
     9     5     6   ar
    10     6     7   ar
    11     7     8   ar
    12     8     9    1
    13     9    10    1
    14    10    17    1
    15    17    18   ar
    16    18    19   ar
    17    19    20   ar
    18    20    23    1
    19    23    24    1
    20    24    25    1
    21    25    26    1
    22    26    27    1
    23    27    28    1
    24    28    29    1
    25    29    30    1
    26    30    31    1
    27    20    21   ar
    28    21    22   ar
    29    14    15   ar
    30    15    16   ar
    31    16    11   ar
    32    10     1    1
    33    22    17   ar
    34     8     3   ar
    35    31    27    1
