@<TRIPOS>MOLECULE
*****
 38 44 0 0 0
SMALL
GASTEIGER

@<TRIPOS>ATOM
      1 C         139.7022  141.2529  160.7568 C.3     1  UNL1        0.1558
      2 N         140.2892  140.4817  159.6119 N.3     1  UNL1       -0.2809
      3 C         140.5181  139.0049  159.7416 C.3     1  UNL1        0.1166
      4 C         140.1602  138.2995  161.0160 C.3     1  UNL1        0.0511
      5 C         139.5733  139.0707  162.1609 C.2     1  UNL1       -0.0037
      6 C         139.3443  140.5475  162.0312 C.2     1  UNL1        0.0784
      7 N         138.7547  141.0399  163.3196 N.2     1  UNL1       -0.2519
      8 C         138.6193  139.8676  164.2455 C.2     1  UNL1        0.0627
      9 C         138.1007  139.7510  165.6481 C.3     1  UNL1        0.0717
     10 C         138.0880  138.4174  166.3346 C.2     1  UNL1       -0.0198
     11 C         138.5939  137.2004  165.6184 C.2     1  UNL1       -0.0042
     12 C         139.1125  137.3169  164.2158 C.2     1  UNL1        0.0006
     13 C         139.1252  138.6505  163.5293 C.2     1  UNL1        0.0111
     14 H         141.1950  140.9032  159.4066 H       1  UNL1        0.1245
     15 C         139.3453  145.1892  164.2581 C.3     1  UNL1        0.0978
     16 C         139.0120  144.2179  163.1647 C.ar    1  UNL1        0.2369
     17 N         139.9114  143.1379  162.6404 N.ar    1  UNL1       -0.1928
     18 C         139.1762  142.4086  161.5554 C.ar    1  UNL1        0.2023
     19 N         137.8224  143.0378  161.4090 N.ar    1  UNL1       -0.0586
     20 O         137.7210  144.1560  162.4037 O.2     1  UNL1       -0.3373
     21 C         139.8775  142.3598  159.7597 C.ar    1  UNL1        0.0423
     22 C         138.9858  142.6387  158.5862 C.ar    1  UNL1        0.1194
     23 N         139.5325  143.8334  157.8623 N.ar    1  UNL1       -0.1679
     24 N         140.7620  144.2928  158.5884 N.ar    1  UNL1       -0.2476
     25 C         141.6264  145.4582  158.2086 C.3     1  UNL1        0.1537
     26 C         140.9752  143.3821  159.7611 C.ar    1  UNL1        0.0944
     27 C         141.1051  138.2336  158.5967 C.ar    1  UNL1        0.1318
     28 N         140.3700  137.7798  157.3705 N.ar    1  UNL1       -0.2298
     29 C         141.3407  137.0464  156.4930 C.ar    1  UNL1        0.0996
     30 C         142.6757  137.0470  157.1770 C.ar    1  UNL1        0.0927
     31 N         142.5300  137.7807  158.4772 N.ar    1  UNL1       -0.3386
     32 H         143.2443  137.9375  159.1363 H       1  UNL1        0.1672
     33 C         141.0308  136.4221  155.1648 C.ar    1  UNL1        0.0192
     34 C         141.7479  135.1762  154.7361 C.ar    1  UNL1        0.0015
     35 C         141.4380  134.5519  153.4079 C.ar    1  UNL1        0.0000
     36 C         140.4111  135.1734  152.5084 C.ar    1  UNL1        0.0000
     37 C         139.6940  136.4192  152.9371 C.ar    1  UNL1        0.0000
     38 C         140.0039  137.0435  154.2653 C.ar    1  UNL1        0.0015
@<TRIPOS>BOND
     1    15    16    1
     2    16    17   ar
     3    17    18   ar
     4     1    18    1
     5     1    21    1
     6    21    22   ar
     7    22    23   ar
     8    23    24   ar
     9    24    25    1
    10    24    26   ar
    11     1     2    1
    12     2     3    1
    13     3    27    1
    14    27    28   ar
    15    28    29   ar
    16    29    33    1
    17    33    34   ar
    18    34    35   ar
    19    35    36   ar
    20    36    37   ar
    21    37    38   ar
    22    29    30   ar
    23    30    31   ar
    24     3     4    1
    25     4     5    1
    26     5     6    2
    27     6     7    1
    28     7     8    2
    29     8     9    1
    30     9    10    1
    31    10    11    2
    32    11    12    1
    33    12    13    2
    34    18    19   ar
    35    19    20   ar
    36    20    16   ar
    37     6     1    1
    38    13     8    1
    39    26    21   ar
    40    31    27   ar
    41    13     5    1
    42    38    33   ar
    43     2    14    1
    44    31    32    1
@<TRIPOS>MOLECULE
*****
 38 44 0 0 0
SMALL
GASTEIGER

@<TRIPOS>ATOM
      1 C         140.7498  141.1534  159.8877 C.3     1  UNL1        0.1558
      2 N         141.0878  140.0834  158.8924 N.3     1  UNL1       -0.2809
      3 C         142.4091  139.3776  158.9696 C.3     1  UNL1        0.1166
      4 C         143.3924  139.7418  160.0422 C.3     1  UNL1        0.0511
      5 C         143.0545  140.8119  161.0375 C.2     1  UNL1       -0.0037
      6 C         141.7332  141.5177  160.9603 C.2     1  UNL1        0.0784
      7 N         141.6793  142.5234  162.0719 N.2     1  UNL1       -0.2519
      8 C         142.9672  142.4391  162.8361 C.2     1  UNL1        0.0627
      9 C         143.4759  143.1889  164.0316 C.3     1  UNL1        0.0717
     10 C         144.8345  142.8809  164.5877 C.2     1  UNL1       -0.0198
     11 C         145.6844  141.8231  163.9484 C.2     1  UNL1       -0.0042
     12 C         145.1758  141.0733  162.7529 C.2     1  UNL1        0.0006
     13 C         143.8172  141.3813  162.1968 C.2     1  UNL1        0.0111
     14 H         141.0373  140.5136  157.9689 H       1  UNL1        0.1245
     15 C         137.5120  143.6237  163.2485 C.3     1  UNL1        0.0978
     16 C         138.4890  143.3620  162.1408 C.ar    1  UNL1        0.2369
     17 N         139.0388  142.0227  161.7483 N.ar    1  UNL1       -0.1928
     18 C         139.9772  142.2265  160.5961 C.ar    1  UNL1        0.2023
     19 N         140.0075  143.6917  160.2764 N.ar    1  UNL1       -0.0586
     20 O         139.0877  144.3935  161.2311 O.2     1  UNL1       -0.3373
     21 C         139.4982  141.1619  159.0612 C.ar    1  UNL1        0.0423
     22 C         138.3756  140.1710  159.1510 C.ar    1  UNL1        0.1194
     23 N         137.3329  140.5595  158.1449 N.ar    1  UNL1       -0.1679
     24 N         137.8111  141.7903  157.4334 N.ar    1  UNL1       -0.2476
     25 C         137.0795  142.5207  156.3466 C.3     1  UNL1        0.1537
     26 C         139.1493  142.1627  157.9997 C.ar    1  UNL1        0.0944
     27 C         142.7471  138.3074  157.9742 C.ar    1  UNL1        0.1318
     28 N         142.2986  136.8772  158.0310 N.ar    1  UNL1       -0.2298
     29 C         142.8672  136.1655  156.8392 C.ar    1  UNL1        0.0996
     30 C         143.6671  137.1560  156.0460 C.ar    1  UNL1        0.0927
     31 N         143.5928  138.4798  156.7475 N.ar    1  UNL1       -0.3386
     32 H         144.0236  139.3150  156.4542 H       1  UNL1        0.1672
     33 C         142.6705  134.7176  156.5003 C.ar    1  UNL1        0.0192
     34 C         143.4284  133.6622  157.2498 C.ar    1  UNL1        0.0015
     35 C         143.2317  132.2143  156.9109 C.ar    1  UNL1        0.0000
     36 C         142.2771  131.8218  155.8225 C.ar    1  UNL1        0.0000
     37 C         141.5192  132.8772  155.0730 C.ar    1  UNL1        0.0000
     38 C         141.7159  134.3251  155.4119 C.ar    1  UNL1        0.0015
@<TRIPOS>BOND
     1    15    16    1
     2    16    17   ar
     3    17    18   ar
     4     1    18    1
     5     1    21    1
     6    21    22   ar
     7    22    23   ar
     8    23    24   ar
     9    24    25    1
    10    24    26   ar
    11     1     2    1
    12     2     3    1
    13     3    27    1
    14    27    28   ar
    15    28    29   ar
    16    29    33    1
    17    33    34   ar
    18    34    35   ar
    19    35    36   ar
    20    36    37   ar
    21    37    38   ar
    22    29    30   ar
    23    30    31   ar
    24     3     4    1
    25     4     5    1
    26     5     6    2
    27     6     7    1
    28     7     8    2
    29     8     9    1
    30     9    10    1
    31    10    11    2
    32    11    12    1
    33    12    13    2
    34    18    19   ar
    35    19    20   ar
    36    20    16   ar
    37     6     1    1
    38    13     8    1
    39    26    21   ar
    40    31    27   ar
    41    13     5    1
    42    38    33   ar
    43     2    14    1
    44    31    32    1
@<TRIPOS>MOLECULE
*****
 38 44 0 0 0
SMALL
GASTEIGER

@<TRIPOS>ATOM
      1 C         142.5434  139.8110  159.6714 C.3     1  UNL1        0.1558
      2 N         143.2164  140.2949  158.4212 N.3     1  UNL1       -0.2809
      3 C         144.1193  141.4917  158.4707 C.3     1  UNL1        0.1166
      4 C         144.3492  142.2046  159.7703 C.3     1  UNL1        0.0511
      5 C         143.6762  141.7207  161.0204 C.2     1  UNL1       -0.0037
      6 C         142.7733  140.5239  160.9710 C.2     1  UNL1        0.0784
      7 N         142.2510  140.2799  162.3558 N.2     1  UNL1       -0.2519
      8 C         142.8311  141.3258  163.2611 C.2     1  UNL1        0.0627
      9 C         142.6711  141.5824  164.7302 C.3     1  UNL1        0.0717
     10 C         143.3919  142.7295  165.3741 C.2     1  UNL1       -0.0198
     11 C         144.2727  143.6200  164.5488 C.2     1  UNL1       -0.0042
     12 C         144.4328  143.3634  163.0796 C.2     1  UNL1        0.0006
     13 C         143.7120  142.2163  162.4357 C.2     1  UNL1        0.0111
     14 H         142.4764  140.5117  157.7535 H       1  UNL1        0.1245
     15 C         138.4140  138.0197  162.4318 C.3     1  UNL1        0.0978
     16 C         139.7892  138.1558  161.8487 C.ar    1  UNL1        0.2369
     17 N         140.2445  139.2292  160.9048 N.ar    1  UNL1       -0.1928
     18 C         141.6872  138.9792  160.5799 C.ar    1  UNL1        0.2023
     19 N         142.1239  137.7515  161.3228 N.ar    1  UNL1       -0.0586
     20 O         140.9508  137.2426  162.1070 O.2     1  UNL1       -0.3373
     21 C         142.0161  138.8092  158.6874 C.ar    1  UNL1        0.0423
     22 C         140.6389  138.7978  158.0930 C.ar    1  UNL1        0.1194
     23 N         140.5452  137.6244  157.1631 N.ar    1  UNL1       -0.1679
     24 N         141.8644  136.9107  157.1828 N.ar    1  UNL1       -0.2476
     25 C         142.2133  135.6808  156.3983 C.3     1  UNL1        0.1537
     26 C         142.7735  137.6430  158.1249 C.ar    1  UNL1        0.0944
     27 C         144.7923  141.9756  157.2205 C.ar    1  UNL1        0.1318
     28 N         146.2572  141.8774  156.9133 N.ar    1  UNL1       -0.2298
     29 C         146.4889  142.4838  155.5610 C.ar    1  UNL1        0.0996
     30 C         145.1672  142.9566  155.0325 C.ar    1  UNL1        0.0927
     31 N         144.1186  142.6425  156.0581 N.ar    1  UNL1       -0.3386
     32 H         143.1571  142.8396  155.9817 H       1  UNL1        0.1672
     33 C         147.8104  142.5973  154.8603 C.ar    1  UNL1        0.0192
     34 C         147.9646  143.5317  153.6971 C.ar    1  UNL1        0.0015
     35 C         149.2860  143.6452  152.9964 C.ar    1  UNL1        0.0000
     36 C         150.4531  142.8244  153.4589 C.ar    1  UNL1        0.0000
     37 C         150.2989  141.8900  154.6222 C.ar    1  UNL1        0.0000
     38 C         148.9775  141.7765  155.3229 C.ar    1  UNL1        0.0015
@<TRIPOS>BOND
     1    15    16    1
     2    16    17   ar
     3    17    18   ar
     4     1    18    1
     5     1    21    1
     6    21    22   ar
     7    22    23   ar
     8    23    24   ar
     9    24    25    1
    10    24    26   ar
    11     1     2    1
    12     2     3    1
    13     3    27    1
    14    27    28   ar
    15    28    29   ar
    16    29    33    1
    17    33    34   ar
    18    34    35   ar
    19    35    36   ar
    20    36    37   ar
    21    37    38   ar
    22    29    30   ar
    23    30    31   ar
    24     3     4    1
    25     4     5    1
    26     5     6    2
    27     6     7    1
    28     7     8    2
    29     8     9    1
    30     9    10    1
    31    10    11    2
    32    11    12    1
    33    12    13    2
    34    18    19   ar
    35    19    20   ar
    36    20    16   ar
    37     6     1    1
    38    13     8    1
    39    26    21   ar
    40    31    27   ar
    41    13     5    1
    42    38    33   ar
    43     2    14    1
    44    31    32    1
@<TRIPOS>MOLECULE
*****
 38 44 0 0 0
SMALL
GASTEIGER

@<TRIPOS>ATOM
      1 C         141.5690  142.0266  161.7241 C.3     1  UNL1        0.1558
      2 N         141.7987  141.2796  160.4438 N.3     1  UNL1       -0.2809
      3 C         142.3665  139.8916  160.4769 C.3     1  UNL1        0.1166
      4 C         142.7046  139.2506  161.7902 C.3     1  UNL1        0.0511
      5 C         142.4749  139.9976  163.0705 C.2     1  UNL1       -0.0037
      6 C         141.9071  141.3856  163.0375 C.2     1  UNL1        0.0784
      7 N         141.7912  141.8727  164.4514 N.2     1  UNL1       -0.2519
      8 C         142.2873  140.7858  165.3584 C.2     1  UNL1        0.0627
      9 C         142.4089  140.7016  166.8510 C.3     1  UNL1        0.0717
     10 C         142.9530  139.4586  167.4902 C.2     1  UNL1       -0.0198
     11 C         143.3756  138.2997  166.6368 C.2     1  UNL1       -0.0042
     12 C         143.2540  138.3839  165.1441 C.2     1  UNL1        0.0006
     13 C         142.7099  139.6269  164.5049 C.2     1  UNL1        0.0111
     14 H         142.4361  141.8452  159.8832 H       1  UNL1        0.1245
     15 C         138.8196  144.9767  165.1326 C.3     1  UNL1        0.0978
     16 C         139.9106  144.4853  164.2281 C.ar    1  UNL1        0.2369
     17 N         139.8802  143.2260  163.4136 N.ar    1  UNL1       -0.1928
     18 C         141.1743  143.1292  162.6614 C.ar    1  UNL1        0.2023
     19 N         142.0045  144.3285  163.0110 N.ar    1  UNL1       -0.0586
     20 O         141.2235  145.1666  163.9793 O.2     1  UNL1       -0.3373
     21 C         141.0939  143.0505  160.7363 C.ar    1  UNL1        0.0423
     22 C         139.6637  143.3917  160.4391 C.ar    1  UNL1        0.1194
     23 N         139.6515  144.4651  159.3913 N.ar    1  UNL1       -0.1679
     24 N         141.0739  144.7873  159.0410 N.ar    1  UNL1       -0.2476
     25 C         141.5256  145.8049  158.0360 C.3     1  UNL1        0.1537
     26 C         141.9654  143.9130  159.8723 C.ar    1  UNL1        0.0944
     27 C         142.5963  139.1445  159.1965 C.ar    1  UNL1        0.1318
     28 N         142.2611  137.7045  158.9438 N.ar    1  UNL1       -0.2298
     29 C         142.6592  137.3763  157.5353 C.ar    1  UNL1        0.0996
     30 C         143.2404  138.6135  156.9176 C.ar    1  UNL1        0.0927
     31 N         143.2015  139.7063  157.9443 N.ar    1  UNL1       -0.3386
     32 H         143.5177  140.6301  157.8185 H       1  UNL1        0.1672
     33 C         142.5033  136.0446  156.8626 C.ar    1  UNL1        0.0192
     34 C         141.5029  135.8749  155.7579 C.ar    1  UNL1        0.0015
     35 C         141.3471  134.5433  155.0852 C.ar    1  UNL1        0.0000
     36 C         142.1917  133.3815  155.5172 C.ar    1  UNL1        0.0000
     37 C         143.1921  133.5512  156.6219 C.ar    1  UNL1        0.0000
     38 C         143.3479  134.8827  157.2946 C.ar    1  UNL1        0.0015
@<TRIPOS>BOND
     1    15    16    1
     2    16    17   ar
     3    17    18   ar
     4     1    18    1
     5     1    21    1
     6    21    22   ar
     7    22    23   ar
     8    23    24   ar
     9    24    25    1
    10    24    26   ar
    11     1     2    1
    12     2     3    1
    13     3    27    1
    14    27    28   ar
    15    28    29   ar
    16    29    33    1
    17    33    34   ar
    18    34    35   ar
    19    35    36   ar
    20    36    37   ar
    21    37    38   ar
    22    29    30   ar
    23    30    31   ar
    24     3     4    1
    25     4     5    1
    26     5     6    2
    27     6     7    1
    28     7     8    2
    29     8     9    1
    30     9    10    1
    31    10    11    2
    32    11    12    1
    33    12    13    2
    34    18    19   ar
    35    19    20   ar
    36    20    16   ar
    37     6     1    1
    38    13     8    1
    39    26    21   ar
    40    31    27   ar
    41    13     5    1
    42    38    33   ar
    43     2    14    1
    44    31    32    1
@<TRIPOS>MOLECULE
*****
 38 44 0 0 0
SMALL
GASTEIGER

@<TRIPOS>ATOM
      1 C         142.4604  142.6362  160.1352 C.3     1  UNL1        0.1558
      2 N         141.9293  143.2641  158.8808 N.3     1  UNL1       -0.2809
      3 C         140.7485  144.1869  158.9459 C.3     1  UNL1        0.1166
      4 C         140.0990  144.4819  160.2654 C.3     1  UNL1        0.0511
      5 C         140.6302  143.8541  161.5199 C.2     1  UNL1       -0.0037
      6 C         141.8109  142.9312  161.4548 C.2     1  UNL1        0.0784
      7 N         142.1108  142.4633  162.8480 N.2     1  UNL1       -0.2519
      8 C         141.1154  143.0970  163.7741 C.2     1  UNL1        0.0627
      9 C         140.9240  143.0023  165.2588 C.3     1  UNL1        0.0717
     10 C         139.8176  143.7672  165.9227 C.2     1  UNL1       -0.0198
     11 C         138.9026  144.6268  165.1018 C.2     1  UNL1       -0.0042
     12 C         139.0939  144.7214  163.6171 C.2     1  UNL1        0.0006
     13 C         140.2003  143.9565  162.9533 C.2     1  UNL1        0.0111
     14 H         141.6720  142.5005  158.2554 H       1  UNL1        0.1245
     15 C         144.1845  138.7064  163.2117 C.3     1  UNL1        0.0978
     16 C         144.1135  139.9995  162.4548 C.ar    1  UNL1        0.2369
     17 N         142.9664  140.4627  161.6065 N.ar    1  UNL1       -0.1928
     18 C         143.3210  141.8057  161.0407 C.ar    1  UNL1        0.2023
     19 N         144.6873  142.1728  161.5393 N.ar    1  UNL1       -0.0586
     20 O         145.1771  141.0564  162.4132 O.2     1  UNL1       -0.3373
     21 C         143.4088  142.0528  159.1302 C.ar    1  UNL1        0.0423
     22 C         143.4241  140.6303  158.6545 C.ar    1  UNL1        0.1194
     23 N         144.5332  140.4879  157.6547 N.ar    1  UNL1       -0.1679
     24 N         145.2034  141.8222  157.5125 N.ar    1  UNL1       -0.2476
     25 C         146.3646  142.1346  156.6158 C.3     1  UNL1        0.1537
     26 C         144.5085  142.7895  158.4244 C.ar    1  UNL1        0.0944
     27 C         140.2173  144.8149  157.6914 C.ar    1  UNL1        0.1318
     28 N         140.4247  146.2367  157.2611 N.ar    1  UNL1       -0.2298
     29 C         139.7210  146.4318  155.9508 C.ar    1  UNL1        0.0996
     30 C         139.0788  145.1304  155.5714 C.ar    1  UNL1        0.0927
     31 N         139.3855  144.1311  156.6472 N.ar    1  UNL1       -0.3386
     32 H         139.0923  143.1914  156.6647 H       1  UNL1        0.1672
     33 C         139.6688  147.7047  155.1590 C.ar    1  UNL1        0.0192
     34 C         138.9532  148.9022  155.7104 C.ar    1  UNL1        0.0015
     35 C         138.9009  150.1751  154.9187 C.ar    1  UNL1        0.0000
     36 C         139.5643  150.2506  153.5755 C.ar    1  UNL1        0.0000
     37 C         140.2799  149.0531  153.0241 C.ar    1  UNL1        0.0000
     38 C         140.3322  147.7802  153.8158 C.ar    1  UNL1        0.0015
@<TRIPOS>BOND
     1    15    16    1
     2    16    17   ar
     3    17    18   ar
     4     1    18    1
     5     1    21    1
     6    21    22   ar
     7    22    23   ar
     8    23    24   ar
     9    24    25    1
    10    24    26   ar
    11     1     2    1
    12     2     3    1
    13     3    27    1
    14    27    28   ar
    15    28    29   ar
    16    29    33    1
    17    33    34   ar
    18    34    35   ar
    19    35    36   ar
    20    36    37   ar
    21    37    38   ar
    22    29    30   ar
    23    30    31   ar
    24     3     4    1
    25     4     5    1
    26     5     6    2
    27     6     7    1
    28     7     8    2
    29     8     9    1
    30     9    10    1
    31    10    11    2
    32    11    12    1
    33    12    13    2
    34    18    19   ar
    35    19    20   ar
    36    20    16   ar
    37     6     1    1
    38    13     8    1
    39    26    21   ar
    40    31    27   ar
    41    13     5    1
    42    38    33   ar
    43     2    14    1
    44    31    32    1
@<TRIPOS>MOLECULE
*****
 38 44 0 0 0
SMALL
GASTEIGER

@<TRIPOS>ATOM
      1 C         141.3310  141.0828  160.1582 C.3     1  UNL1        0.1558
      2 N         140.7497  141.8965  159.0401 N.3     1  UNL1       -0.2809
      3 C         140.8507  143.3928  159.0704 C.3     1  UNL1        0.1166
      4 C         141.5329  144.0754  160.2188 C.3     1  UNL1        0.0511
      5 C         142.1142  143.2617  161.3368 C.2     1  UNL1       -0.0037
      6 C         142.0132  141.7654  161.3065 C.2     1  UNL1        0.0784
      7 N         142.6757  141.2310  162.5416 N.2     1  UNL1       -0.2519
      8 C         143.1862  142.3971  163.3353 C.2     1  UNL1        0.0627
      9 C         143.9222  142.4782  164.6397 C.3     1  UNL1        0.0717
     10 C         144.3111  143.8143  165.1996 C.2     1  UNL1       -0.0198
     11 C         143.9640  145.0693  164.4549 C.2     1  UNL1       -0.0042
     12 C         143.2280  144.9882  163.1505 C.2     1  UNL1        0.0006
     13 C         142.8391  143.6521  162.5906 C.2     1  UNL1        0.0111
     14 H         139.7563  141.6692  158.9961 H       1  UNL1        0.1245
     15 C         141.1944  137.1227  163.6481 C.3     1  UNL1        0.0978
     16 C         141.6598  138.0676  162.5802 C.ar    1  UNL1        0.2369
     17 N         140.8761  139.2154  162.0159 N.ar    1  UNL1       -0.1928
     18 C         141.7225  139.8879  160.9761 C.ar    1  UNL1        0.2023
     19 N         143.0294  139.1559  160.8978 N.ar    1  UNL1       -0.0586
     20 O         142.9906  138.0308  161.8892 O.2     1  UNL1       -0.3373
     21 C         140.7848  139.9852  159.2939 C.ar    1  UNL1        0.0423
     22 C         139.3849  139.4477  159.3311 C.ar    1  UNL1        0.1194
     23 N         139.2775  138.3627  158.3008 N.ar    1  UNL1       -0.1679
     24 N         140.6110  138.2297  157.6270 N.ar    1  UNL1       -0.2476
     25 C         140.9529  137.2636  156.5317 C.3     1  UNL1        0.1537
     26 C         141.5426  139.2325  158.2407 C.ar    1  UNL1        0.0944
     27 C         140.2695  144.2065  157.9523 C.ar    1  UNL1        0.1318
     28 N         140.2750  145.7034  157.8562 N.ar    1  UNL1       -0.2298
     29 C         139.5896  146.0883  156.5786 C.ar    1  UNL1        0.0996
     30 C         139.1606  144.8293  155.8853 C.ar    1  UNL1        0.0927
     31 N         139.5807  143.6663  156.7343 N.ar    1  UNL1       -0.3386
     32 H         139.4308  142.7153  156.5282 H       1  UNL1        0.1672
     33 C         139.3716  147.4867  156.0817 C.ar    1  UNL1        0.0192
     34 C         138.6574  148.4859  156.9428 C.ar    1  UNL1        0.0015
     35 C         138.4393  149.8843  156.4460 C.ar    1  UNL1        0.0000
     36 C         138.9355  150.2835  155.0879 C.ar    1  UNL1        0.0000
     37 C         139.6498  149.2844  154.2267 C.ar    1  UNL1        0.0000
     38 C         139.8678  147.8860  154.7236 C.ar    1  UNL1        0.0015
@<TRIPOS>BOND
     1    15    16    1
     2    16    17   ar
     3    17    18   ar
     4     1    18    1
     5     1    21    1
     6    21    22   ar
     7    22    23   ar
     8    23    24   ar
     9    24    25    1
    10    24    26   ar
    11     1     2    1
    12     2     3    1
    13     3    27    1
    14    27    28   ar
    15    28    29   ar
    16    29    33    1
    17    33    34   ar
    18    34    35   ar
    19    35    36   ar
    20    36    37   ar
    21    37    38   ar
    22    29    30   ar
    23    30    31   ar
    24     3     4    1
    25     4     5    1
    26     5     6    2
    27     6     7    1
    28     7     8    2
    29     8     9    1
    30     9    10    1
    31    10    11    2
    32    11    12    1
    33    12    13    2
    34    18    19   ar
    35    19    20   ar
    36    20    16   ar
    37     6     1    1
    38    13     8    1
    39    26    21   ar
    40    31    27   ar
    41    13     5    1
    42    38    33   ar
    43     2    14    1
    44    31    32    1
@<TRIPOS>MOLECULE
*****
 38 44 0 0 0
SMALL
GASTEIGER

@<TRIPOS>ATOM
      1 C         140.0194  141.8626  161.1289 C.3     1  UNL1        0.1558
      2 N         140.7535  141.2686  159.9635 N.3     1  UNL1       -0.2809
      3 C         141.0641  139.8013  159.9417 C.3     1  UNL1        0.1166
      4 C         140.6406  138.9279  161.0854 C.3     1  UNL1        0.0511
      5 C         139.9064  139.5219  162.2508 C.2     1  UNL1       -0.0037
      6 C         139.5958  140.9892  162.2726 C.2     1  UNL1        0.0784
      7 N         138.8641  141.2891  163.5472 N.2     1  UNL1       -0.2519
      8 C         138.7225  140.0072  164.3131 C.2     1  UNL1        0.0627
      9 C         138.0902  139.6934  165.6366 C.3     1  UNL1        0.0717
     10 C         138.1021  138.2874  166.1589 C.2     1  UNL1       -0.0198
     11 C         138.7463  137.1951  165.3576 C.2     1  UNL1       -0.0042
     12 C         139.3786  137.5089  164.0341 C.2     1  UNL1        0.0006
     13 C         139.3667  138.9150  163.5119 C.2     1  UNL1        0.0111
     14 H         141.6452  141.7594  159.8961 H       1  UNL1        0.1245
     15 C         138.9929  145.1385  165.1408 C.3     1  UNL1        0.0978
     16 C         138.8798  144.3887  163.8466 C.ar    1  UNL1        0.2369
     17 N         139.8582  143.3786  163.3246 N.ar    1  UNL1       -0.1928
     18 C         139.3517  142.8829  162.0027 C.ar    1  UNL1        0.2023
     19 N         138.0603  143.5866  161.7076 N.ar    1  UNL1       -0.0586
     20 O         137.7687  144.5172  162.8473 O.2     1  UNL1       -0.3373
     21 C         140.2110  143.0903  160.2888 C.ar    1  UNL1        0.0423
     22 C         141.0218  144.2960  160.6616 C.ar    1  UNL1        0.1194
     23 N         140.9374  145.2788  159.5314 N.ar    1  UNL1       -0.1679
     24 N         140.0746  144.6805  158.4603 N.ar    1  UNL1       -0.2476
     25 C         139.7225  145.3220  157.1510 C.3     1  UNL1        0.1537
     26 C         139.6256  143.3279  158.9283 C.ar    1  UNL1        0.0944
     27 C         141.7983  139.2073  158.7763 C.ar    1  UNL1        0.1318
     28 N         141.5678  137.8459  158.1902 N.ar    1  UNL1       -0.2298
     29 C         142.5189  137.6676  157.0441 C.ar    1  UNL1        0.0996
     30 C         143.3372  138.9188  156.9218 C.ar    1  UNL1        0.0927
     31 N         142.8919  139.8704  157.9924 N.ar    1  UNL1       -0.3386
     32 H         143.2537  140.7719  158.1525 H       1  UNL1        0.1672
     33 C         142.6319  136.4516  156.1731 C.ar    1  UNL1        0.0192
     34 C         143.2493  135.1962  156.7142 C.ar    1  UNL1        0.0015
     35 C         143.3623  133.9802  155.8433 C.ar    1  UNL1        0.0000
     36 C         142.8578  134.0196  154.4313 C.ar    1  UNL1        0.0000
     37 C         142.2404  135.2749  153.8901 C.ar    1  UNL1        0.0000
     38 C         142.1274  136.4909  154.7610 C.ar    1  UNL1        0.0015
@<TRIPOS>BOND
     1    15    16    1
     2    16    17   ar
     3    17    18   ar
     4     1    18    1
     5     1    21    1
     6    21    22   ar
     7    22    23   ar
     8    23    24   ar
     9    24    25    1
    10    24    26   ar
    11     1     2    1
    12     2     3    1
    13     3    27    1
    14    27    28   ar
    15    28    29   ar
    16    29    33    1
    17    33    34   ar
    18    34    35   ar
    19    35    36   ar
    20    36    37   ar
    21    37    38   ar
    22    29    30   ar
    23    30    31   ar
    24     3     4    1
    25     4     5    1
    26     5     6    2
    27     6     7    1
    28     7     8    2
    29     8     9    1
    30     9    10    1
    31    10    11    2
    32    11    12    1
    33    12    13    2
    34    18    19   ar
    35    19    20   ar
    36    20    16   ar
    37     6     1    1
    38    13     8    1
    39    26    21   ar
    40    31    27   ar
    41    13     5    1
    42    38    33   ar
    43     2    14    1
    44    31    32    1
@<TRIPOS>MOLECULE
*****
 38 44 0 0 0
SMALL
GASTEIGER

@<TRIPOS>ATOM
      1 C         140.9759  141.8367  160.9134 C.3     1  UNL1        0.1558
      2 N         140.8702  141.0486  159.6415 N.3     1  UNL1       -0.2809
      3 C         140.2659  139.6759  159.6578 C.3     1  UNL1        0.1166
      4 C         139.7673  139.0911  160.9460 C.3     1  UNL1        0.0511
      5 C         139.8730  139.8791  162.2179 C.2     1  UNL1       -0.0037
      6 C         140.4773  141.2519  162.2016 C.2     1  UNL1        0.0784
      7 N         140.4484  141.7877  163.6024 N.2     1  UNL1       -0.2519
      8 C         139.8261  140.7461  164.4844 C.2     1  UNL1        0.0627
      9 C         139.5374  140.7193  165.9560 C.3     1  UNL1        0.0717
     10 C         138.8931  139.5130  166.5721 C.2     1  UNL1       -0.0198
     11 C         138.5375  138.3334  165.7164 C.2     1  UNL1       -0.0042
     12 C         138.8262  138.3601  164.2447 C.2     1  UNL1        0.0006
     13 C         139.4706  139.5665  163.6287 C.2     1  UNL1        0.0111
     14 H         141.8177  140.9490  159.2772 H       1  UNL1        0.1245
     15 C         143.5808  145.0905  164.1549 C.3     1  UNL1        0.0978
     16 C         142.4903  144.4594  163.3411 C.ar    1  UNL1        0.2369
     17 N         142.6272  143.2399  162.4783 N.ar    1  UNL1       -0.1928
     18 C         141.2931  142.9637  161.8511 C.ar    1  UNL1        0.2023
     19 N         140.3315  144.0124  162.3262 N.ar    1  UNL1       -0.0586
     20 O         141.0715  144.9367  163.2470 O.2     1  UNL1       -0.3373
     21 C         141.5846  142.8128  159.9509 C.ar    1  UNL1        0.0423
     22 C         143.0061  142.8089  159.4719 C.ar    1  UNL1        0.1194
     23 N         143.1787  143.9581  158.5233 N.ar    1  UNL1       -0.1679
     24 N         141.8640  144.6721  158.4160 N.ar    1  UNL1       -0.2476
     25 C         141.5836  145.8816  157.5743 C.3     1  UNL1        0.1537
     26 C         140.8787  143.9643  159.2983 C.ar    1  UNL1        0.0944
     27 C         140.1601  138.8878  158.3858 C.ar    1  UNL1        0.1318
     28 N         141.1036  137.8129  157.9336 N.ar    1  UNL1       -0.2298
     29 C         140.6190  137.2971  156.6111 C.ar    1  UNL1        0.0996
     30 C         139.3760  138.0531  156.2460 C.ar    1  UNL1        0.0927
     31 N         139.0924  139.0362  157.3428 N.ar    1  UNL1       -0.3386
     32 H         138.3379  139.6680  157.3729 H       1  UNL1        0.1672
     33 C         141.2641  136.2151  155.7967 C.ar    1  UNL1        0.0192
     34 C         140.7452  135.8979  154.4256 C.ar    1  UNL1        0.0015
     35 C         141.3902  134.8160  153.6112 C.ar    1  UNL1        0.0000
     36 C         142.5542  134.0512  154.1680 C.ar    1  UNL1        0.0000
     37 C         143.0732  134.3683  155.5392 C.ar    1  UNL1        0.0000
     38 C         142.4281  135.4502  156.3536 C.ar    1  UNL1        0.0015
@<TRIPOS>BOND
     1    15    16    1
     2    16    17   ar
     3    17    18   ar
     4     1    18    1
     5     1    21    1
     6    21    22   ar
     7    22    23   ar
     8    23    24   ar
     9    24    25    1
    10    24    26   ar
    11     1     2    1
    12     2     3    1
    13     3    27    1
    14    27    28   ar
    15    28    29   ar
    16    29    33    1
    17    33    34   ar
    18    34    35   ar
    19    35    36   ar
    20    36    37   ar
    21    37    38   ar
    22    29    30   ar
    23    30    31   ar
    24     3     4    1
    25     4     5    1
    26     5     6    2
    27     6     7    1
    28     7     8    2
    29     8     9    1
    30     9    10    1
    31    10    11    2
    32    11    12    1
    33    12    13    2
    34    18    19   ar
    35    19    20   ar
    36    20    16   ar
    37     6     1    1
    38    13     8    1
    39    26    21   ar
    40    31    27   ar
    41    13     5    1
    42    38    33   ar
    43     2    14    1
    44    31    32    1
@<TRIPOS>MOLECULE
*****
 38 44 0 0 0
SMALL
GASTEIGER

@<TRIPOS>ATOM
      1 C         142.0272  143.6390  159.3129 C.3     1  UNL1        0.1558
      2 N         142.8149  143.3832  158.0623 N.3     1  UNL1       -0.2809
      3 C         144.1921  142.7955  158.1504 C.3     1  UNL1        0.1166
      4 C         144.7816  142.4635  159.4892 C.3     1  UNL1        0.0511
      5 C         143.9939  142.7192  160.7398 C.2     1  UNL1       -0.0037
      6 C         142.6167  143.3070  160.6517 C.2     1  UNL1        0.0784
      7 N         142.0823  143.4467  162.0463 N.2     1  UNL1       -0.2519
      8 C         143.1292  142.9454  162.9963 C.2     1  UNL1        0.0627
      9 C         143.1593  142.8402  164.4923 C.3     1  UNL1        0.0717
     10 C         144.3709  142.2853  165.1808 C.2     1  UNL1       -0.0198
     11 C         145.5524  141.8357  164.3734 C.2     1  UNL1       -0.0042
     12 C         145.5223  141.9409  162.8774 C.2     1  UNL1        0.0006
     13 C         144.3107  142.4957  162.1889 C.2     1  UNL1        0.0111
     14 H         142.9072  144.2794  157.5840 H       1  UNL1        0.1245
     15 C         137.8237  143.4893  162.5049 C.3     1  UNL1        0.0978
     16 C         138.9665  143.9922  161.6736 C.ar    1  UNL1        0.2369
     17 N         139.9190  143.1470  160.8808 N.ar    1  UNL1       -0.1928
     18 C         140.8986  144.0609  160.2064 C.ar    1  UNL1        0.2023
     19 N         140.5516  145.4710  160.5823 N.ar    1  UNL1       -0.0586
     20 O         139.3575  145.4285  161.4891 O.2     1  UNL1       -0.3373
     21 C         141.0457  144.1175  158.2845 C.ar    1  UNL1        0.0423
     22 C         139.9276  143.3127  157.6911 C.ar    1  UNL1        0.1194
     23 N         139.2009  144.1828  156.7087 N.ar    1  UNL1       -0.1679
     24 N         139.8699  145.5252  156.6950 N.ar    1  UNL1       -0.2476
     25 C         139.4691  146.7014  155.8549 C.3     1  UNL1        0.1537
     26 C         141.0100  145.4849  157.6688 C.ar    1  UNL1        0.0944
     27 C         144.9799  142.5397  156.8998 C.ar    1  UNL1        0.1318
     28 N         146.4582  142.7326  156.7341 N.ar    1  UNL1       -0.2298
     29 C         146.8196  142.3582  155.3272 C.ar    1  UNL1        0.0996
     30 C         145.5647  141.9340  154.6235 C.ar    1  UNL1        0.0927
     31 N         144.4277  142.0461  155.5954 N.ar    1  UNL1       -0.3386
     32 H         143.4846  141.8332  155.4098 H       1  UNL1        0.1672
     33 C         148.1946  142.4007  154.7291 C.ar    1  UNL1        0.0192
     34 C         148.4453  143.1935  153.4807 C.ar    1  UNL1        0.0015
     35 C         149.8202  143.2360  152.8826 C.ar    1  UNL1        0.0000
     36 C         150.9444  142.4856  153.5330 C.ar    1  UNL1        0.0000
     37 C         150.6938  141.6928  154.7814 C.ar    1  UNL1        0.0000
     38 C         149.3189  141.6503  155.3795 C.ar    1  UNL1        0.0015
@<TRIPOS>BOND
     1    15    16    1
     2    16    17   ar
     3    17    18   ar
     4     1    18    1
     5     1    21    1
     6    21    22   ar
     7    22    23   ar
     8    23    24   ar
     9    24    25    1
    10    24    26   ar
    11     1     2    1
    12     2     3    1
    13     3    27    1
    14    27    28   ar
    15    28    29   ar
    16    29    33    1
    17    33    34   ar
    18    34    35   ar
    19    35    36   ar
    20    36    37   ar
    21    37    38   ar
    22    29    30   ar
    23    30    31   ar
    24     3     4    1
    25     4     5    1
    26     5     6    2
    27     6     7    1
    28     7     8    2
    29     8     9    1
    30     9    10    1
    31    10    11    2
    32    11    12    1
    33    12    13    2
    34    18    19   ar
    35    19    20   ar
    36    20    16   ar
    37     6     1    1
    38    13     8    1
    39    26    21   ar
    40    31    27   ar
    41    13     5    1
    42    38    33   ar
    43     2    14    1
    44    31    32    1
