@<TRIPOS>MOLECULE
*****
 30 33 0 0 0
SMALL
GASTEIGER

@<TRIPOS>ATOM
      1 C         141.3254  141.7712  164.6711 C.2     1  UNL1        0.0784
      2 N         142.1637  142.2692  165.8110 N.2     1  UNL1       -0.2444
      3 C         142.3610  141.6548  167.1651 C.ar    1  UNL1        0.0954
      4 C         143.2847  142.4794  168.0117 C.ar    1  UNL1        0.0317
      5 C         143.6162  142.0398  169.4069 C.ar    1  UNL1        0.0593
      6 CL        144.5398  142.8644  170.2537 Cl      1  UNL1       -0.0822
      7 C         143.0240  140.7755  169.9556 C.ar    1  UNL1        0.0128
      8 C         142.1004  139.9509  169.1090 C.ar    1  UNL1        0.0170
      9 C         141.7689  140.3905  167.7137 C.ar    1  UNL1        0.0662
     10 N         140.8331  139.4285  167.0437 N.pl3   1  UNL1       -0.3113
     11 C         140.2583  139.4930  165.6597 C.ar    1  UNL1        0.0500
     12 C         139.3609  138.3233  165.3838 C.ar    1  UNL1        0.0178
     13 C         138.6825  138.1961  164.0521 C.ar    1  UNL1        0.0385
     14 C         138.9016  139.2386  162.9962 C.ar    1  UNL1        0.1469
     15 C         139.7991  140.4085  163.2720 C.ar    1  UNL1        0.0399
     16 C         140.4775  140.5357  164.6038 C.ar    1  UNL1        0.0337
     17 H         140.5600  138.6520  167.5838 H       1  UNL1        0.1523
     18 C         139.5911  145.8969  162.0310 C.3     1  UNL1        0.0222
     19 C         140.4694  144.6839  162.1150 C.3     1  UNL1        0.0796
     20 C         140.4582  143.8341  163.3511 C.2     1  UNL1       -0.0132
     21 C         141.3366  142.6210  163.4351 C.2     1  UNL1       -0.0061
     22 C         142.2260  142.2578  162.2832 C.3     1  UNL1        0.0449
     23 C         142.2372  143.1076  161.0472 C.3     1  UNL1        0.0771
     24 N         141.3589  144.3207  160.9631 N.3     1  UNL1       -0.2688
     25 C         141.3700  145.1705  159.7272 C.3     1  UNL1        0.0899
     26 O         138.2232  139.1114  161.6644 O.3     1  UNL1       -0.4045
     27 C         139.0300  138.8029  160.4381 C.3     1  UNL1        0.5753
     28 F         139.8369  138.4943  159.2118 F       1  UNL1       -0.1328
     29 F         138.3361  139.9109  159.7028 F       1  UNL1       -0.1328
     30 F         139.7240  137.6948  161.1736 F       1  UNL1       -0.1328
@<TRIPOS>BOND
     1    19    18    1
     2    19    20    1
     3    20    21    2
     4    21     1    1
     5     1     2    2
     6     2     3    1
     7     3     4   ar
     8     4     5   ar
     9     5     6    1
    10     5     7   ar
    11     7     8   ar
    12     8     9   ar
    13     9    10    1
    14    10    11    1
    15    11    12   ar
    16    12    13   ar
    17    13    14   ar
    18    14    26    1
    19    26    27    1
    20    27    28    1
    21    27    29    1
    22    27    30    1
    23    14    15   ar
    24    15    16   ar
    25    21    22    1
    26    22    23    1
    27    23    24    1
    28    24    25    1
    29    24    19    1
    30    16     1    1
    31     9     3   ar
    32    16    11   ar
    33    10    17    1
@<TRIPOS>MOLECULE
*****
 30 33 0 0 0
SMALL
GASTEIGER

@<TRIPOS>ATOM
      1 C         140.6892  142.1745  162.2232 C.2     1  UNL1        0.0784
      2 N         140.0553  142.3644  160.8771 N.2     1  UNL1       -0.2444
      3 C         140.3508  143.4103  159.8433 C.ar    1  UNL1        0.0954
      4 C         139.4846  143.2421  158.6303 C.ar    1  UNL1        0.0317
      5 C         139.6208  144.1882  157.4744 C.ar    1  UNL1        0.0593
      6 CL        138.7545  144.0199  156.2613 Cl      1  UNL1       -0.0822
      7 C         140.6232  145.3026  157.5314 C.ar    1  UNL1        0.0128
      8 C         141.4894  145.4709  158.7444 C.ar    1  UNL1        0.0170
      9 C         141.3532  144.5248  159.9003 C.ar    1  UNL1        0.0662
     10 N         142.3077  144.8684  161.0052 N.pl3   1  UNL1       -0.3113
     11 C         142.4956  144.1827  162.3260 C.ar    1  UNL1        0.0500
     12 C         143.5612  144.8504  163.1436 C.ar    1  UNL1        0.0178
     13 C         143.9066  144.3193  164.5032 C.ar    1  UNL1        0.0385
     14 C         143.1863  143.1204  165.0453 C.ar    1  UNL1        0.1469
     15 C         142.1206  142.4526  164.2276 C.ar    1  UNL1        0.0399
     16 C         141.7753  142.9837  162.8680 C.ar    1  UNL1        0.0337
     17 H         142.8875  145.6471  160.8420 H       1  UNL1        0.1523
     18 C         141.0745  137.2337  163.7851 C.3     1  UNL1        0.0222
     19 C         140.3609  138.5528  163.8123 C.3     1  UNL1        0.0796
     20 C         140.8819  139.7041  163.0041 C.2     1  UNL1       -0.0132
     21 C         140.1683  141.0232  163.0314 C.2     1  UNL1       -0.0061
     22 C         138.9338  141.1910  163.8667 C.3     1  UNL1        0.0449
     23 C         138.4129  140.0398  164.6749 C.3     1  UNL1        0.0771
     24 N         139.1265  138.7206  164.6477 N.3     1  UNL1       -0.2688
     25 C         138.6056  137.5693  165.4559 C.3     1  UNL1        0.0899
     26 O         143.5317  142.5893  166.4049 O.3     1  UNL1       -0.4045
     27 C         142.6763  141.5312  167.0363 C.3     1  UNL1        0.5753
     28 F         141.8209  140.4730  167.6677 F       1  UNL1       -0.1328
     29 F         143.4154  140.4756  166.2686 F       1  UNL1       -0.1328
     30 F         141.9372  142.5868  167.8040 F       1  UNL1       -0.1328
@<TRIPOS>BOND
     1    19    18    1
     2    19    20    1
     3    20    21    2
     4    21     1    1
     5     1     2    2
     6     2     3    1
     7     3     4   ar
     8     4     5   ar
     9     5     6    1
    10     5     7   ar
    11     7     8   ar
    12     8     9   ar
    13     9    10    1
    14    10    11    1
    15    11    12   ar
    16    12    13   ar
    17    13    14   ar
    18    14    26    1
    19    26    27    1
    20    27    28    1
    21    27    29    1
    22    27    30    1
    23    14    15   ar
    24    15    16   ar
    25    21    22    1
    26    22    23    1
    27    23    24    1
    28    24    25    1
    29    24    19    1
    30    16     1    1
    31     9     3   ar
    32    16    11   ar
    33    10    17    1
@<TRIPOS>MOLECULE
*****
 30 33 0 0 0
SMALL
GASTEIGER

@<TRIPOS>ATOM
      1 C         141.2662  141.0482  164.4748 C.2     1  UNL1        0.0784
      2 N         141.7751  140.2140  165.6128 N.2     1  UNL1       -0.2444
      3 C         141.6334  140.4560  167.0864 C.ar    1  UNL1        0.0954
      4 C         142.2928  139.3715  167.8857 C.ar    1  UNL1        0.0317
      5 C         142.2665  139.4230  169.3846 C.ar    1  UNL1        0.0593
      6 CL        142.9259  138.3385  170.1840 Cl      1  UNL1       -0.0822
      7 C         141.5808  140.5590  170.0841 C.ar    1  UNL1        0.0128
      8 C         140.9214  141.6435  169.2847 C.ar    1  UNL1        0.0170
      9 C         140.9477  141.5920  167.7859 C.ar    1  UNL1        0.0662
     10 N         140.2344  142.7666  167.1845 N.pl3   1  UNL1       -0.3113
     11 C         140.0306  143.0953  165.7353 C.ar    1  UNL1        0.0500
     12 C         139.2582  144.3699  165.5657 C.ar    1  UNL1        0.0178
     13 C         138.9449  144.8797  164.1902 C.ar    1  UNL1        0.0385
     14 C         139.4041  144.1150  162.9843 C.ar    1  UNL1        0.1469
     15 C         140.1766  142.8404  163.1538 C.ar    1  UNL1        0.0399
     16 C         140.4898  142.3305  164.5293 C.ar    1  UNL1        0.0337
     17 H         139.8490  143.4064  167.8259 H       1  UNL1        0.1523
     18 C         139.8369  138.4059  160.2351 C.3     1  UNL1        0.0222
     19 C         140.8598  139.2108  160.9807 C.3     1  UNL1        0.0796
     20 C         140.5515  139.7270  162.3549 C.2     1  UNL1       -0.0132
     21 C         141.5744  140.5319  163.1006 C.2     1  UNL1       -0.0061
     22 C         142.9054  140.8205  162.4720 C.3     1  UNL1        0.0449
     23 C         143.2137  140.3042  161.0978 C.3     1  UNL1        0.0771
     24 N         142.1908  139.4993  160.3522 N.3     1  UNL1       -0.2688
     25 C         142.4990  138.9830  158.9780 C.3     1  UNL1        0.0899
     26 O         139.0908  144.6249  161.6088 O.3     1  UNL1       -0.4045
     27 C         140.1885  145.1655  160.7413 C.3     1  UNL1        0.5753
     28 F         141.2863  145.7061  159.8737 F       1  UNL1       -0.1328
     29 F         140.1811  143.8967  159.9413 F       1  UNL1       -0.1328
     30 F         140.1960  146.4343  161.5414 F       1  UNL1       -0.1328
@<TRIPOS>BOND
     1    19    18    1
     2    19    20    1
     3    20    21    2
     4    21     1    1
     5     1     2    2
     6     2     3    1
     7     3     4   ar
     8     4     5   ar
     9     5     6    1
    10     5     7   ar
    11     7     8   ar
    12     8     9   ar
    13     9    10    1
    14    10    11    1
    15    11    12   ar
    16    12    13   ar
    17    13    14   ar
    18    14    26    1
    19    26    27    1
    20    27    28    1
    21    27    29    1
    22    27    30    1
    23    14    15   ar
    24    15    16   ar
    25    21    22    1
    26    22    23    1
    27    23    24    1
    28    24    25    1
    29    24    19    1
    30    16     1    1
    31     9     3   ar
    32    16    11   ar
    33    10    17    1
@<TRIPOS>MOLECULE
*****
 30 33 0 0 0
SMALL
GASTEIGER

@<TRIPOS>ATOM
      1 C         140.2328  141.6131  164.0992 C.2     1  UNL1        0.0784
      2 N         140.4293  142.3907  165.3667 N.2     1  UNL1       -0.2444
      3 C         140.2023  141.9464  166.7814 C.ar    1  UNL1        0.0954
      4 C         140.5218  143.0399  167.7572 C.ar    1  UNL1        0.0317
      5 C         140.3617  142.8016  169.2294 C.ar    1  UNL1        0.0593
      6 CL        140.6813  143.8950  170.2053 Cl      1  UNL1       -0.0822
      7 C         139.8822  141.4698  169.7258 C.ar    1  UNL1        0.0128
      8 C         139.5627  140.3764  168.7500 C.ar    1  UNL1        0.0170
      9 C         139.7227  140.6147  167.2778 C.ar    1  UNL1        0.0662
     10 N         139.3518  139.3983  166.4822 N.pl3   1  UNL1       -0.3113
     11 C         139.3687  139.2133  164.9938 C.ar    1  UNL1        0.0500
     12 C         138.9206  137.8348  164.6077 C.ar    1  UNL1        0.0178
     13 C         138.8646  137.4420  163.1611 C.ar    1  UNL1        0.0385
     14 C         139.2567  138.4276  162.1007 C.ar    1  UNL1        0.1469
     15 C         139.7048  139.8061  162.4867 C.ar    1  UNL1        0.0399
     16 C         139.7608  140.1990  163.9332 C.ar    1  UNL1        0.0337
     17 H         139.0584  138.6183  167.0063 H       1  UNL1        0.1523
     18 C         143.6269  142.9310  160.3922 C.3     1  UNL1        0.0222
     19 C         142.2474  143.0054  160.9763 C.3     1  UNL1        0.0796
     20 C         141.9299  142.2720  162.2457 C.2     1  UNL1       -0.0132
     21 C         140.5503  142.3464  162.8299 C.2     1  UNL1       -0.0061
     22 C         139.4883  143.1542  162.1446 C.3     1  UNL1        0.0449
     23 C         139.8057  143.8876  160.8752 C.3     1  UNL1        0.0771
     24 N         141.1853  143.8132  160.2911 N.3     1  UNL1       -0.2688
     25 C         141.5028  144.5466  159.0217 C.3     1  UNL1        0.0899
     26 O         139.2008  138.0348  160.6541 O.3     1  UNL1       -0.4045
     27 C         139.9667  138.8224  159.6329 C.3     1  UNL1        0.5753
     28 F         140.7327  139.6100  158.6116 F       1  UNL1       -0.1328
     29 F         141.2412  138.1783  160.0921 F       1  UNL1       -0.1328
     30 F         138.6922  139.4664  159.1736 F       1  UNL1       -0.1328
@<TRIPOS>BOND
     1    19    18    1
     2    19    20    1
     3    20    21    2
     4    21     1    1
     5     1     2    2
     6     2     3    1
     7     3     4   ar
     8     4     5   ar
     9     5     6    1
    10     5     7   ar
    11     7     8   ar
    12     8     9   ar
    13     9    10    1
    14    10    11    1
    15    11    12   ar
    16    12    13   ar
    17    13    14   ar
    18    14    26    1
    19    26    27    1
    20    27    28    1
    21    27    29    1
    22    27    30    1
    23    14    15   ar
    24    15    16   ar
    25    21    22    1
    26    22    23    1
    27    23    24    1
    28    24    25    1
    29    24    19    1
    30    16     1    1
    31     9     3   ar
    32    16    11   ar
    33    10    17    1
@<TRIPOS>MOLECULE
*****
 30 33 0 0 0
SMALL
GASTEIGER

@<TRIPOS>ATOM
      1 C         140.9726  141.5548  164.5018 C.2     1  UNL1        0.0784
      2 N         140.7848  140.8790  165.8276 N.2     1  UNL1       -0.2444
      3 C         141.5601  141.0766  167.0965 C.ar    1  UNL1        0.0954
      4 C         141.0441  140.1973  168.1966 C.ar    1  UNL1        0.0317
      5 C         141.6827  140.2405  169.5532 C.ar    1  UNL1        0.0593
      6 CL        141.1667  139.3611  170.6534 Cl      1  UNL1       -0.0822
      7 C         142.8374  141.1630  169.8095 C.ar    1  UNL1        0.0128
      8 C         143.3534  142.0423  168.7093 C.ar    1  UNL1        0.0170
      9 C         142.7148  141.9991  167.3528 C.ar    1  UNL1        0.0662
     10 N         143.3793  142.9517  166.4036 N.pl3   1  UNL1       -0.3113
     11 C         143.0534  143.2172  164.9637 C.ar    1  UNL1        0.0500
     12 C         143.9675  144.2513  164.3764 C.ar    1  UNL1        0.0178
     13 C         143.8106  144.6638  162.9428 C.ar    1  UNL1        0.0385
     14 C         142.7396  144.0421  162.0965 C.ar    1  UNL1        0.1469
     15 C         141.8254  143.0079  162.6837 C.ar    1  UNL1        0.0399
     16 C         141.9823  142.5955  164.1173 C.ar    1  UNL1        0.0337
     17 H         144.1285  143.4715  166.7748 H       1  UNL1        0.1523
     18 C         139.7953  138.4379  160.5146 C.3     1  UNL1        0.0222
     19 C         139.4370  139.5761  161.4234 C.3     1  UNL1        0.0796
     20 C         140.3840  139.9963  162.5082 C.2     1  UNL1       -0.0132
     21 C         140.0257  141.1346  163.4171 C.2     1  UNL1       -0.0061
     22 C         138.7206  141.8527  163.2411 C.3     1  UNL1        0.0449
     23 C         137.7736  141.4325  162.1564 C.3     1  UNL1        0.0771
     24 N         138.1319  140.2942  161.2475 N.3     1  UNL1       -0.2688
     25 C         137.1850  139.8740  160.1627 C.3     1  UNL1        0.0899
     26 O         142.5827  144.4546  160.6629 O.3     1  UNL1       -0.4045
     27 C         141.2278  144.8162  160.1305 C.3     1  UNL1        0.5753
     28 F         139.8728  145.1779  159.5980 F       1  UNL1       -0.1328
     29 F         141.4384  143.8928  158.9673 F       1  UNL1       -0.1328
     30 F         141.0172  145.7396  161.2937 F       1  UNL1       -0.1328
@<TRIPOS>BOND
     1    19    18    1
     2    19    20    1
     3    20    21    2
     4    21     1    1
     5     1     2    2
     6     2     3    1
     7     3     4   ar
     8     4     5   ar
     9     5     6    1
    10     5     7   ar
    11     7     8   ar
    12     8     9   ar
    13     9    10    1
    14    10    11    1
    15    11    12   ar
    16    12    13   ar
    17    13    14   ar
    18    14    26    1
    19    26    27    1
    20    27    28    1
    21    27    29    1
    22    27    30    1
    23    14    15   ar
    24    15    16   ar
    25    21    22    1
    26    22    23    1
    27    23    24    1
    28    24    25    1
    29    24    19    1
    30    16     1    1
    31     9     3   ar
    32    16    11   ar
    33    10    17    1
@<TRIPOS>MOLECULE
*****
 30 33 0 0 0
SMALL
GASTEIGER

@<TRIPOS>ATOM
      1 C         141.8731  140.8067  164.7909 C.2     1  UNL1        0.0784
      2 N         142.3288  141.5569  166.0072 N.2     1  UNL1       -0.2444
      3 C         141.8573  141.4160  167.4243 C.ar    1  UNL1        0.0954
      4 C         142.5777  142.3624  168.3382 C.ar    1  UNL1        0.0317
      5 C         142.2544  142.3828  169.8028 C.ar    1  UNL1        0.0593
      6 CL        142.9748  143.3292  170.7168 Cl      1  UNL1       -0.0822
      7 C         141.2107  141.4568  170.3534 C.ar    1  UNL1        0.0128
      8 C         140.4903  140.5104  169.4394 C.ar    1  UNL1        0.0170
      9 C         140.8136  140.4900  167.9749 C.ar    1  UNL1        0.0662
     10 N         139.9836  139.4763  167.2445 N.pl3   1  UNL1       -0.3113
     11 C         139.9923  139.1381  165.7831 C.ar    1  UNL1        0.0500
     12 C         139.0008  138.0586  165.4644 C.ar    1  UNL1        0.0178
     13 C         138.8502  137.5711  164.0539 C.ar    1  UNL1        0.0385
     14 C         139.6911  138.1632  162.9620 C.ar    1  UNL1        0.1469
     15 C         140.6826  139.2428  163.2806 C.ar    1  UNL1        0.0399
     16 C         140.8332  139.7302  164.6912 C.ar    1  UNL1        0.0337
     17 H         139.3492  138.9653  167.7974 H       1  UNL1        0.1523
     18 C         142.0539  143.7166  160.4898 C.3     1  UNL1        0.0222
     19 C         142.6366  142.6376  161.3536 C.3     1  UNL1        0.0796
     20 C         141.9634  142.2617  162.6404 C.2     1  UNL1       -0.0132
     21 C         142.5461  141.1826  163.5042 C.2     1  UNL1       -0.0061
     22 C         143.8019  140.4795  163.0814 C.3     1  UNL1        0.0449
     23 C         144.4750  140.8554  161.7946 C.3     1  UNL1        0.0771
     24 N         143.8923  141.9345  160.9308 N.3     1  UNL1       -0.2688
     25 C         144.5653  142.3104  159.6441 C.3     1  UNL1        0.0899
     26 O         139.5404  137.6758  161.5514 O.3     1  UNL1       -0.4045
     27 C         139.1648  138.6361  160.4621 C.3     1  UNL1        0.5753
     28 F         138.7892  139.5965  159.3727 F       1  UNL1       -0.1328
     29 F         137.8305  138.8519  161.1125 F       1  UNL1       -0.1328
     30 F         140.4992  138.4203  159.8117 F       1  UNL1       -0.1328
@<TRIPOS>BOND
     1    19    18    1
     2    19    20    1
     3    20    21    2
     4    21     1    1
     5     1     2    2
     6     2     3    1
     7     3     4   ar
     8     4     5   ar
     9     5     6    1
    10     5     7   ar
    11     7     8   ar
    12     8     9   ar
    13     9    10    1
    14    10    11    1
    15    11    12   ar
    16    12    13   ar
    17    13    14   ar
    18    14    26    1
    19    26    27    1
    20    27    28    1
    21    27    29    1
    22    27    30    1
    23    14    15   ar
    24    15    16   ar
    25    21    22    1
    26    22    23    1
    27    23    24    1
    28    24    25    1
    29    24    19    1
    30    16     1    1
    31     9     3   ar
    32    16    11   ar
    33    10    17    1
@<TRIPOS>MOLECULE
*****
 30 33 0 0 0
SMALL
GASTEIGER

@<TRIPOS>ATOM
      1 C         140.8882  141.8576  163.1153 C.2     1  UNL1        0.0784
      2 N         141.2403  142.9510  162.1507 N.2     1  UNL1       -0.2444
      3 C         140.8182  143.1080  160.7199 C.ar    1  UNL1        0.0954
      4 C         141.3967  144.3507  160.1109 C.ar    1  UNL1        0.0317
      5 C         141.0965  144.6956  158.6823 C.ar    1  UNL1        0.0593
      6 CL        141.6750  145.9384  158.0733 Cl      1  UNL1       -0.0822
      7 C         140.2178  143.7977  157.8627 C.ar    1  UNL1        0.0128
      8 C         139.6393  142.5550  158.4717 C.ar    1  UNL1        0.0170
      9 C         139.9395  142.2101  159.9003 C.ar    1  UNL1        0.0662
     10 N         139.2660  140.9336  160.3090 N.pl3   1  UNL1       -0.3113
     11 C         139.3048  140.2397  161.6383 C.ar    1  UNL1        0.0500
     12 C         138.4883  138.9815  161.6238 C.ar    1  UNL1        0.0178
     13 C         138.3937  138.1345  162.8582 C.ar    1  UNL1        0.0385
     14 C         139.1156  138.5457  164.1070 C.ar    1  UNL1        0.1469
     15 C         139.9322  139.8040  164.1215 C.ar    1  UNL1        0.0399
     16 C         140.0268  140.6510  162.8872 C.ar    1  UNL1        0.0337
     17 H         138.7272  140.4930  159.6128 H       1  UNL1        0.1523
     18 C         140.3299  142.9740  168.1592 C.3     1  UNL1        0.0222
     19 C         141.1958  142.5462  167.0115 C.3     1  UNL1        0.0796
     20 C         140.6090  142.4158  165.6373 C.2     1  UNL1       -0.0132
     21 C         141.4750  141.9881  164.4895 C.2     1  UNL1       -0.0061
     22 C         142.9276  141.6908  164.7161 C.3     1  UNL1        0.0449
     23 C         143.5145  141.8212  166.0904 C.3     1  UNL1        0.0771
     24 N         142.6485  142.2490  167.2381 N.3     1  UNL1       -0.2688
     25 C         143.2353  142.3794  168.6124 C.3     1  UNL1        0.0899
     26 O         139.0211  137.6988  165.3414 O.3     1  UNL1       -0.4045
     27 C         137.9804  137.9990  166.3791 C.3     1  UNL1        0.5753
     28 F         136.9397  138.2992  167.4168 F       1  UNL1       -0.1328
     29 F         138.3091  139.4595  166.2862 F       1  UNL1       -0.1328
     30 F         137.6517  136.5383  166.4719 F       1  UNL1       -0.1328
@<TRIPOS>BOND
     1    19    18    1
     2    19    20    1
     3    20    21    2
     4    21     1    1
     5     1     2    2
     6     2     3    1
     7     3     4   ar
     8     4     5   ar
     9     5     6    1
    10     5     7   ar
    11     7     8   ar
    12     8     9   ar
    13     9    10    1
    14    10    11    1
    15    11    12   ar
    16    12    13   ar
    17    13    14   ar
    18    14    26    1
    19    26    27    1
    20    27    28    1
    21    27    29    1
    22    27    30    1
    23    14    15   ar
    24    15    16   ar
    25    21    22    1
    26    22    23    1
    27    23    24    1
    28    24    25    1
    29    24    19    1
    30    16     1    1
    31     9     3   ar
    32    16    11   ar
    33    10    17    1
@<TRIPOS>MOLECULE
*****
 30 33 0 0 0
SMALL
GASTEIGER

@<TRIPOS>ATOM
      1 C         141.2542  141.0733  164.8302 C.2     1  UNL1        0.0784
      2 N         141.8658  140.5422  166.0927 N.2     1  UNL1       -0.2444
      3 C         141.7475  141.0806  167.4877 C.ar    1  UNL1        0.0954
      4 C         142.5204  140.2453  168.4649 C.ar    1  UNL1        0.0317
      5 C         142.5340  140.6125  169.9192 C.ar    1  UNL1        0.0593
      6 CL        143.3069  139.7772  170.8965 Cl      1  UNL1       -0.0822
      7 C         141.7748  141.8150  170.3963 C.ar    1  UNL1        0.0128
      8 C         141.0020  142.6503  169.4191 C.ar    1  UNL1        0.0170
      9 C         140.9883  142.2831  167.9648 C.ar    1  UNL1        0.0662
     10 N         140.1600  143.2442  167.1647 N.pl3   1  UNL1       -0.3113
     11 C         139.8862  143.2402  165.6899 C.ar    1  UNL1        0.0500
     12 C         139.0031  144.3859  165.2932 C.ar    1  UNL1        0.0178
     13 C         138.6070  144.5656  163.8577 C.ar    1  UNL1        0.0385
     14 C         139.0940  143.5995  162.8188 C.ar    1  UNL1        0.1469
     15 C         139.9771  142.4536  163.2154 C.ar    1  UNL1        0.0399
     16 C         140.3732  142.2740  164.6510 C.ar    1  UNL1        0.0337
     17 H         139.7405  143.9742  167.6750 H       1  UNL1        0.1523
     18 C         144.0016  140.5066  160.4564 C.3     1  UNL1        0.0222
     19 C         142.9384  140.0183  161.3950 C.3     1  UNL1        0.0796
     20 C         142.6279  140.7900  162.6433 C.2     1  UNL1       -0.0132
     21 C         141.5647  140.3016  163.5819 C.2     1  UNL1       -0.0061
     22 C         140.8119  139.0417  163.2723 C.3     1  UNL1        0.0449
     23 C         141.1223  138.2700  162.0241 C.3     1  UNL1        0.0771
     24 N         142.1856  138.7584  161.0854 N.3     1  UNL1       -0.2688
     25 C         142.4960  137.9867  159.8371 C.3     1  UNL1        0.0899
     26 O         138.6979  143.7791  161.3832 O.3     1  UNL1       -0.4045
     27 C         138.4453  142.5794  160.5191 C.3     1  UNL1        0.5753
     28 F         138.1927  141.3796  159.6549 F       1  UNL1       -0.1328
     29 F         137.5118  142.0289  161.5562 F       1  UNL1       -0.1328
     30 F         139.3788  143.1299  159.4820 F       1  UNL1       -0.1328
@<TRIPOS>BOND
     1    19    18    1
     2    19    20    1
     3    20    21    2
     4    21     1    1
     5     1     2    2
     6     2     3    1
     7     3     4   ar
     8     4     5   ar
     9     5     6    1
    10     5     7   ar
    11     7     8   ar
    12     8     9   ar
    13     9    10    1
    14    10    11    1
    15    11    12   ar
    16    12    13   ar
    17    13    14   ar
    18    14    26    1
    19    26    27    1
    20    27    28    1
    21    27    29    1
    22    27    30    1
    23    14    15   ar
    24    15    16   ar
    25    21    22    1
    26    22    23    1
    27    23    24    1
    28    24    25    1
    29    24    19    1
    30    16     1    1
    31     9     3   ar
    32    16    11   ar
    33    10    17    1
@<TRIPOS>MOLECULE
*****
 30 33 0 0 0
SMALL
GASTEIGER

@<TRIPOS>ATOM
      1 C         140.5578  142.3798  161.1706 C.2     1  UNL1        0.0784
      2 N         140.5835  143.2705  159.9640 N.2     1  UNL1       -0.2444
      3 C         139.7076  143.2227  158.7472 C.ar    1  UNL1        0.0954
      4 C         140.0685  144.3013  157.7693 C.ar    1  UNL1        0.0317
      5 C         139.3114  144.4294  156.4808 C.ar    1  UNL1        0.0593
      6 CL        139.6724  145.5081  155.5029 Cl      1  UNL1       -0.0822
      7 C         138.1934  143.4789  156.1701 C.ar    1  UNL1        0.0128
      8 C         137.8325  142.4003  157.1480 C.ar    1  UNL1        0.0170
      9 C         138.5896  142.2722  158.4365 C.ar    1  UNL1        0.0662
     10 N         138.0713  141.1348  159.2659 N.pl3   1  UNL1       -0.3113
     11 C         138.5430  140.6670  160.6107 C.ar    1  UNL1        0.0500
     12 C         137.7482  139.4892  161.0912 C.ar    1  UNL1        0.0178
     13 C         138.0598  138.8654  162.4193 C.ar    1  UNL1        0.0385
     14 C         139.1663  139.4195  163.2669 C.ar    1  UNL1        0.1469
     15 C         139.9613  140.5974  162.7865 C.ar    1  UNL1        0.0399
     16 C         139.6496  141.2211  161.4584 C.ar    1  UNL1        0.0337
     17 H         137.3225  140.6284  158.8760 H       1  UNL1        0.1523
     18 C         145.3494  141.8318  163.1042 C.3     1  UNL1        0.0222
     19 C         143.9703  142.4145  163.1961 C.3     1  UNL1        0.0796
     20 C         142.9536  142.1058  162.1374 C.2     1  UNL1       -0.0132
     21 C         141.5744  142.6885  162.2293 C.2     1  UNL1       -0.0061
     22 C         141.2121  143.5799  163.3799 C.3     1  UNL1        0.0449
     23 C         142.2288  143.8887  164.4387 C.3     1  UNL1        0.0771
     24 N         143.6079  143.3060  164.3468 N.3     1  UNL1       -0.2688
     25 C         144.6246  143.6147  165.4055 C.3     1  UNL1        0.0899
     26 O         139.4780  138.7957  164.5950 O.3     1  UNL1       -0.4045
     27 C         138.4122  138.6973  165.6459 C.3     1  UNL1        0.5753
     28 F         137.3465  138.5987  166.6969 F       1  UNL1       -0.1328
     29 F         138.2452  140.1876  165.6162 F       1  UNL1       -0.1328
     30 F         138.5793  137.2069  165.6756 F       1  UNL1       -0.1328
@<TRIPOS>BOND
     1    19    18    1
     2    19    20    1
     3    20    21    2
     4    21     1    1
     5     1     2    2
     6     2     3    1
     7     3     4   ar
     8     4     5   ar
     9     5     6    1
    10     5     7   ar
    11     7     8   ar
    12     8     9   ar
    13     9    10    1
    14    10    11    1
    15    11    12   ar
    16    12    13   ar
    17    13    14   ar
    18    14    26    1
    19    26    27    1
    20    27    28    1
    21    27    29    1
    22    27    30    1
    23    14    15   ar
    24    15    16   ar
    25    21    22    1
    26    22    23    1
    27    23    24    1
    28    24    25    1
    29    24    19    1
    30    16     1    1
    31     9     3   ar
    32    16    11   ar
    33    10    17    1
