@<TRIPOS>MOLECULE
*****
 22 23 0 0 0
SMALL
GASTEIGER

@<TRIPOS>ATOM
      1 C         140.9087  142.7369  169.1633 C.ar    1  UNL1        0.1219
      2 C         140.3483  142.5181  167.7892 C.ar    1  UNL1        0.0230
      3 C         141.2682  142.2170  166.6433 C.ar    1  UNL1        0.0383
      4 C         142.7484  142.1346  166.8714 C.ar    1  UNL1        0.1386
      5 C         143.3088  142.3535  168.2455 C.ar    1  UNL1        0.0383
      6 C         142.3889  142.6546  169.3914 C.ar    1  UNL1        0.0230
      7 N         139.0689  143.3392  171.4551 N.3     1  UNL1       -0.2035
      8 S         139.9888  143.0381  170.3092 S.O2    1  UNL1        0.0572
      9 O         140.4556  144.4636  170.3092 O.2     1  UNL1       -0.1532
     10 O         139.5220  141.6126  170.3091 O.2     1  UNL1       -0.1532
     11 H         139.5114  143.0567  172.3296 H       1  UNL1        0.1442
     12 H         138.1959  142.8257  171.3343 H       1  UNL1        0.1442
     13 O         143.6683  141.8335  165.7255 O.3     1  UNL1       -0.4755
     14 C         144.4066  142.9471  165.0437 C.3     1  UNL1        0.2054
     15 C         143.6762  144.1925  164.6370 C.3     1  UNL1        0.0488
     16 C         142.5422  144.1112  163.6584 C.3     1  UNL1        0.0212
     17 C         141.4651  145.1551  163.6701 C.3     1  UNL1        0.0722
     18 N         140.0249  144.7458  163.7605 N.3     1  UNL1       -0.2727
     19 C         139.1659  144.2855  162.6203 C.3     1  UNL1        0.0721
     20 C         137.8009  143.9801  163.1621 C.3     1  UNL1        0.0188
     21 C         137.8164  144.2517  164.6372 C.3     1  UNL1        0.0188
     22 C         139.1909  144.7249  165.0071 C.3     1  UNL1        0.0721
@<TRIPOS>BOND
     1     7     8    1
     2     8     9    2
     3     8    10    2
     4     8     1    1
     5     1     2   ar
     6     2     3   ar
     7     3     4   ar
     8     4    13    1
     9    13    14    1
    10    14    15    1
    11    15    16    1
    12    16    17    1
    13    17    18    1
    14    18    19    1
    15    19    20    1
    16    20    21    1
    17    21    22    1
    18     4     5   ar
    19     5     6   ar
    20     6     1   ar
    21    22    18    1
    22     7    11    1
    23     7    12    1
@<TRIPOS>MOLECULE
*****
 22 23 0 0 0
SMALL
GASTEIGER

@<TRIPOS>ATOM
      1 C         141.3151  141.7396  169.6786 C.ar    1  UNL1        0.1219
      2 C         141.5338  141.2598  168.2744 C.ar    1  UNL1        0.0230
      3 C         140.5232  140.3635  167.6221 C.ar    1  UNL1        0.0383
      4 C         139.2940  139.9470  168.3740 C.ar    1  UNL1        0.1386
      5 C         139.0753  140.4269  169.7782 C.ar    1  UNL1        0.0383
      6 C         140.0858  141.3232  170.4305 C.ar    1  UNL1        0.0230
      7 N         143.3361  143.5322  170.9831 N.3     1  UNL1       -0.2035
      8 S         142.3256  142.6359  170.3308 S.O2    1  UNL1        0.0572
      9 O         141.6245  142.4691  171.6463 O.2     1  UNL1       -0.1532
     10 O         143.0268  142.8027  169.0153 O.2     1  UNL1       -0.1532
     11 H         143.0810  144.5065  170.8216 H       1  UNL1        0.1442
     12 H         144.2578  143.3517  170.5852 H       1  UNL1        0.1442
     13 O         138.2835  139.0507  167.7218 O.3     1  UNL1       -0.4755
     14 C         138.2100  138.9669  166.2259 C.3     1  UNL1        0.2054
     15 C         138.8199  137.7987  165.5094 C.3     1  UNL1        0.0488
     16 C         138.9183  137.8053  164.0126 C.3     1  UNL1        0.0212
     17 C         140.2567  137.9445  163.3496 C.3     1  UNL1        0.0722
     18 N         141.3808  138.6319  164.0664 N.3     1  UNL1       -0.2727
     19 C         142.3362  137.9902  165.0284 C.3     1  UNL1        0.0721
     20 C         143.2928  139.0433  165.5036 C.3     1  UNL1        0.0188
     21 C         142.9286  140.3359  164.8352 C.3     1  UNL1        0.0188
     22 C         141.7470  140.0816  163.9470 C.3     1  UNL1        0.0721
@<TRIPOS>BOND
     1     7     8    1
     2     8     9    2
     3     8    10    2
     4     8     1    1
     5     1     2   ar
     6     2     3   ar
     7     3     4   ar
     8     4    13    1
     9    13    14    1
    10    14    15    1
    11    15    16    1
    12    16    17    1
    13    17    18    1
    14    18    19    1
    15    19    20    1
    16    20    21    1
    17    21    22    1
    18     4     5   ar
    19     5     6   ar
    20     6     1   ar
    21    22    18    1
    22     7    11    1
    23     7    12    1
@<TRIPOS>MOLECULE
*****
 22 23 0 0 0
SMALL
GASTEIGER

@<TRIPOS>ATOM
      1 C         141.8494  142.4892  168.8511 C.ar    1  UNL1        0.1219
      2 C         140.5311  142.8321  168.2232 C.ar    1  UNL1        0.0230
      3 C         140.4050  142.8936  166.7298 C.ar    1  UNL1        0.0383
      4 C         141.5973  142.6121  165.8642 C.ar    1  UNL1        0.1386
      5 C         142.9156  142.2692  166.4922 C.ar    1  UNL1        0.0383
      6 C         143.0417  142.2077  167.9856 C.ar    1  UNL1        0.0230
      7 N         142.1015  142.3662  171.8380 N.3     1  UNL1       -0.2035
      8 S         141.9755  142.4277  170.3445 S.O2    1  UNL1        0.0572
      9 O         140.7654  141.5437  170.4103 O.2     1  UNL1       -0.1532
     10 O         143.1855  143.3117  170.2788 O.2     1  UNL1       -0.1532
     11 H         141.6782  143.1981  172.2494 H       1  UNL1        0.1442
     12 H         143.0878  142.3243  172.0945 H       1  UNL1        0.1442
     13 O         141.4713  142.6736  164.3708 O.3     1  UNL1       -0.4755
     14 C         141.2243  143.9884  163.6925 C.3     1  UNL1        0.2054
     15 C         142.1453  145.1458  163.9420 C.3     1  UNL1        0.0488
     16 C         143.6293  144.9627  163.8220 C.3     1  UNL1        0.0212
     17 C         144.1952  144.1367  162.7051 C.3     1  UNL1        0.0722
     18 N         144.4902  142.6822  162.9230 N.3     1  UNL1       -0.2727
     19 C         143.9231  141.5397  162.1338 C.3     1  UNL1        0.0721
     20 C         144.4865  140.2662  162.6913 C.3     1  UNL1        0.0188
     21 C         145.4020  140.6218  163.8252 C.3     1  UNL1        0.0188
     22 C         145.4042  142.1150  163.9684 C.3     1  UNL1        0.0721
@<TRIPOS>BOND
     1     7     8    1
     2     8     9    2
     3     8    10    2
     4     8     1    1
     5     1     2   ar
     6     2     3   ar
     7     3     4   ar
     8     4    13    1
     9    13    14    1
    10    14    15    1
    11    15    16    1
    12    16    17    1
    13    17    18    1
    14    18    19    1
    15    19    20    1
    16    20    21    1
    17    21    22    1
    18     4     5   ar
    19     5     6   ar
    20     6     1   ar
    21    22    18    1
    22     7    11    1
    23     7    12    1
@<TRIPOS>MOLECULE
*****
 22 23 0 0 0
SMALL
GASTEIGER

@<TRIPOS>ATOM
      1 C         141.4155  141.7496  169.7679 C.ar    1  UNL1        0.1219
      2 C         141.7495  140.9417  168.5490 C.ar    1  UNL1        0.0230
      3 C         140.7188  140.0349  167.9446 C.ar    1  UNL1        0.0383
      4 C         139.3540  139.9360  168.5590 C.ar    1  UNL1        0.1386
      5 C         139.0200  140.7439  169.7779 C.ar    1  UNL1        0.0383
      6 C         140.0507  141.6507  170.3823 C.ar    1  UNL1        0.0230
      7 N         143.4770  143.5631  170.9767 N.3     1  UNL1       -0.2035
      8 S         142.4462  142.6564  170.3723 S.O2    1  UNL1        0.0572
      9 O         143.0981  142.8101  169.0301 O.2     1  UNL1       -0.1532
     10 O         141.7944  142.5026  171.7145 O.2     1  UNL1       -0.1532
     11 H         144.2085  143.0027  171.4139 H       1  UNL1        0.1442
     12 H         143.0372  144.1566  171.6802 H       1  UNL1        0.1442
     13 O         138.3233  139.0292  167.9546 O.3     1  UNL1       -0.4755
     14 C         138.3582  138.7281  166.4856 C.3     1  UNL1        0.2054
     15 C         138.1317  139.8263  165.4893 C.3     1  UNL1        0.0488
     16 C         139.0719  139.9954  164.3328 C.3     1  UNL1        0.0212
     17 C         138.9007  141.1492  163.3896 C.3     1  UNL1        0.0722
     18 N         139.0738  142.5545  163.8846 N.3     1  UNL1       -0.2727
     19 C         140.3114  143.3911  163.7487 C.3     1  UNL1        0.0721
     20 C         140.0422  144.7236  164.3824 C.3     1  UNL1        0.0188
     21 C         138.6380  144.7107  164.9100 C.3     1  UNL1        0.0188
     22 C         138.0396  143.3701  164.6023 C.3     1  UNL1        0.0721
@<TRIPOS>BOND
     1     7     8    1
     2     8     9    2
     3     8    10    2
     4     8     1    1
     5     1     2   ar
     6     2     3   ar
     7     3     4   ar
     8     4    13    1
     9    13    14    1
    10    14    15    1
    11    15    16    1
    12    16    17    1
    13    17    18    1
    14    18    19    1
    15    19    20    1
    16    20    21    1
    17    21    22    1
    18     4     5   ar
    19     5     6   ar
    20     6     1   ar
    21    22    18    1
    22     7    11    1
    23     7    12    1
@<TRIPOS>MOLECULE
*****
 22 23 0 0 0
SMALL
GASTEIGER

@<TRIPOS>ATOM
      1 C         142.0044  142.4324  168.8742 C.ar    1  UNL1        0.1219
      2 C         140.6829  142.5810  168.1804 C.ar    1  UNL1        0.0230
      3 C         140.6184  142.5817  166.6818 C.ar    1  UNL1        0.0383
      4 C         141.8756  142.4339  165.8770 C.ar    1  UNL1        0.1386
      5 C         143.1971  142.2853  166.5708 C.ar    1  UNL1        0.0383
      6 C         143.2615  142.2846  168.0694 C.ar    1  UNL1        0.0230
      7 N         142.1332  142.4309  171.8714 N.3     1  UNL1       -0.2035
      8 S         142.0688  142.4317  170.3728 S.O2    1  UNL1        0.0572
      9 O         142.7969  141.1206  170.3409 O.2     1  UNL1       -0.1532
     10 O         141.3407  143.7427  170.4048 O.2     1  UNL1       -0.1532
     11 H         141.2524  142.0821  172.2494 H       1  UNL1        0.1442
     12 H         142.2939  143.3812  172.2053 H       1  UNL1        0.1442
     13 O         141.8111  142.4347  164.3783 O.3     1  UNL1       -0.4755
     14 C         143.0012  142.8717  163.5767 C.3     1  UNL1        0.2054
     15 C         143.1422  144.3073  163.1654 C.3     1  UNL1        0.0488
     16 C         142.1386  145.3219  163.6274 C.3     1  UNL1        0.0212
     17 C         140.8568  145.5074  162.8707 C.3     1  UNL1        0.0722
     18 N         139.6315  144.7408  163.2718 N.3     1  UNL1       -0.2727
     19 C         138.8995  144.8674  164.5749 C.3     1  UNL1        0.0721
     20 C         137.7386  143.9179  164.5487 C.3     1  UNL1        0.0188
     21 C         137.7532  143.2044  163.2292 C.3     1  UNL1        0.0188
     22 C         138.9230  143.7130  162.4401 C.3     1  UNL1        0.0721
@<TRIPOS>BOND
     1     7     8    1
     2     8     9    2
     3     8    10    2
     4     8     1    1
     5     1     2   ar
     6     2     3   ar
     7     3     4   ar
     8     4    13    1
     9    13    14    1
    10    14    15    1
    11    15    16    1
    12    16    17    1
    13    17    18    1
    14    18    19    1
    15    19    20    1
    16    20    21    1
    17    21    22    1
    18     4     5   ar
    19     5     6   ar
    20     6     1   ar
    21    22    18    1
    22     7    11    1
    23     7    12    1
@<TRIPOS>MOLECULE
*****
 22 23 0 0 0
SMALL
GASTEIGER

@<TRIPOS>ATOM
      1 C         140.6147  142.0058  169.3238 C.ar    1  UNL1        0.1219
      2 C         141.9461  142.5702  168.9253 C.ar    1  UNL1        0.0230
      3 C         142.7501  141.9058  167.8473 C.ar    1  UNL1        0.0383
      4 C         142.2227  140.6769  167.1678 C.ar    1  UNL1        0.1386
      5 C         140.8913  140.1125  167.5663 C.ar    1  UNL1        0.0383
      6 C         140.0874  140.7769  168.6443 C.ar    1  UNL1        0.0230
      7 N         139.0067  143.3347  171.4799 N.3     1  UNL1       -0.2035
      8 S         139.8107  142.6702  170.4019 S.O2    1  UNL1        0.0572
      9 O         138.9415  141.4521  170.5044 O.2     1  UNL1       -0.1532
     10 O         140.6799  143.8884  170.2993 O.2     1  UNL1       -0.1532
     11 H         138.3153  143.9533  171.0560 H       1  UNL1        0.1442
     12 H         139.6267  143.8783  172.0803 H       1  UNL1        0.1442
     13 O         143.0267  140.0125  166.0898 O.3     1  UNL1       -0.4755
     14 C         142.5876  140.1097  164.6588 C.3     1  UNL1        0.2054
     15 C         143.5915  139.9597  163.5544 C.3     1  UNL1        0.0488
     16 C         145.0582  140.0426  163.8577 C.3     1  UNL1        0.0212
     17 C         145.7348  141.3794  163.9299 C.3     1  UNL1        0.0722
     18 N         144.9307  142.6362  163.7759 N.3     1  UNL1       -0.2727
     19 C         144.3761  143.4705  164.8924 C.3     1  UNL1        0.0721
     20 C         143.6427  144.6293  164.2850 C.3     1  UNL1        0.0188
     21 C         143.7439  144.5113  162.7930 C.3     1  UNL1        0.0188
     22 C         144.5399  143.2795  162.4784 C.3     1  UNL1        0.0721
@<TRIPOS>BOND
     1     7     8    1
     2     8     9    2
     3     8    10    2
     4     8     1    1
     5     1     2   ar
     6     2     3   ar
     7     3     4   ar
     8     4    13    1
     9    13    14    1
    10    14    15    1
    11    15    16    1
    12    16    17    1
    13    17    18    1
    14    18    19    1
    15    19    20    1
    16    20    21    1
    17    21    22    1
    18     4     5   ar
    19     5     6   ar
    20     6     1   ar
    21    22    18    1
    22     7    11    1
    23     7    12    1
@<TRIPOS>MOLECULE
*****
 22 23 0 0 0
SMALL
GASTEIGER

@<TRIPOS>ATOM
      1 C         142.5068  141.9396  169.1294 C.ar    1  UNL1        0.1219
      2 C         141.7347  142.3859  167.9233 C.ar    1  UNL1        0.0230
      3 C         141.3617  141.3936  166.8621 C.ar    1  UNL1        0.0383
      4 C         141.7608  139.9550  167.0070 C.ar    1  UNL1        0.1386
      5 C         142.5330  139.5087  168.2130 C.ar    1  UNL1        0.0383
      6 C         142.9060  140.5010  169.2742 C.ar    1  UNL1        0.0230
      7 N         143.2528  143.9243  171.2518 N.3     1  UNL1       -0.2035
      8 S         142.8798  142.9320  170.1906 S.O2    1  UNL1        0.0572
      9 O         144.3257  142.7859  169.8190 O.2     1  UNL1       -0.1532
     10 O         141.4339  143.0781  170.5622 O.2     1  UNL1       -0.1532
     11 H         143.3018  143.4536  172.1553 H       1  UNL1        0.1442
     12 H         142.5490  144.6616  171.2903 H       1  UNL1        0.1442
     13 O         141.3878  138.9626  165.9458 O.3     1  UNL1       -0.4755
     14 C         142.4079  138.5238  164.9374 C.3     1  UNL1        0.2054
     15 C         143.2055  139.5464  164.1836 C.3     1  UNL1        0.0488
     16 C         144.6361  139.8038  164.5541 C.3     1  UNL1        0.0212
     17 C         145.4070  140.8879  163.8609 C.3     1  UNL1        0.0722
     18 N         144.8453  142.2767  163.7854 N.3     1  UNL1       -0.2727
     19 C         144.6116  143.0663  162.5316 C.3     1  UNL1        0.0721
     20 C         144.0406  144.3974  162.9218 C.3     1  UNL1        0.0188
     21 C         143.9215  144.4304  164.4167 C.3     1  UNL1        0.0188
     22 C         144.4189  143.1198  164.9504 C.3     1  UNL1        0.0721
@<TRIPOS>BOND
     1     7     8    1
     2     8     9    2
     3     8    10    2
     4     8     1    1
     5     1     2   ar
     6     2     3   ar
     7     3     4   ar
     8     4    13    1
     9    13    14    1
    10    14    15    1
    11    15    16    1
    12    16    17    1
    13    17    18    1
    14    18    19    1
    15    19    20    1
    16    20    21    1
    17    21    22    1
    18     4     5   ar
    19     5     6   ar
    20     6     1   ar
    21    22    18    1
    22     7    11    1
    23     7    12    1
@<TRIPOS>MOLECULE
*****
 22 23 0 0 0
SMALL
GASTEIGER

@<TRIPOS>ATOM
      1 C         140.2858  141.6306  169.2137 C.ar    1  UNL1        0.1219
      2 C         140.8412  142.6029  168.2157 C.ar    1  UNL1        0.0230
      3 C         140.7290  142.3171  166.7475 C.ar    1  UNL1        0.0383
      4 C         140.0612  141.0590  166.2772 C.ar    1  UNL1        0.1386
      5 C         139.5058  140.0867  167.2752 C.ar    1  UNL1        0.0383
      6 C         139.6181  140.3725  168.7434 C.ar    1  UNL1        0.0230
      7 N         140.5104  142.2021  172.1502 N.3     1  UNL1       -0.2035
      8 S         140.3981  141.9163  170.6819 S.O2    1  UNL1        0.0572
      9 O         139.7741  140.5872  170.9884 O.2     1  UNL1       -0.1532
     10 O         141.0221  143.2455  170.3755 O.2     1  UNL1       -0.1532
     11 H         139.7268  142.7853  172.4440 H       1  UNL1        0.1442
     12 H         141.3862  142.6910  172.3354 H       1  UNL1        0.1442
     13 O         139.9489  140.7732  164.8090 O.3     1  UNL1       -0.4755
     14 C         138.8795  139.8505  164.3042 C.3     1  UNL1        0.2054
     15 C         137.7417  140.3944  163.4920 C.3     1  UNL1        0.0488
     16 C         138.0152  141.1058  162.2000 C.3     1  UNL1        0.0212
     17 C         137.8508  142.5943  162.1140 C.3     1  UNL1        0.0722
     18 N         138.4798  143.4794  163.1488 N.3     1  UNL1       -0.2727
     19 C         137.7993  144.0364  164.3640 C.3     1  UNL1        0.0721
     20 C         138.7986  144.8641  165.1164 C.3     1  UNL1        0.0188
     21 C         140.0968  144.8186  164.3663 C.3     1  UNL1        0.0188
     22 C         139.8997  143.9628  163.1502 C.3     1  UNL1        0.0721
@<TRIPOS>BOND
     1     7     8    1
     2     8     9    2
     3     8    10    2
     4     8     1    1
     5     1     2   ar
     6     2     3   ar
     7     3     4   ar
     8     4    13    1
     9    13    14    1
    10    14    15    1
    11    15    16    1
    12    16    17    1
    13    17    18    1
    14    18    19    1
    15    19    20    1
    16    20    21    1
    17    21    22    1
    18     4     5   ar
    19     5     6   ar
    20     6     1   ar
    21    22    18    1
    22     7    11    1
    23     7    12    1
@<TRIPOS>MOLECULE
*****
 22 23 0 0 0
SMALL
GASTEIGER

@<TRIPOS>ATOM
      1 C         142.0428  141.9663  169.2831 C.ar    1  UNL1        0.1219
      2 C         142.7944  140.7884  168.7376 C.ar    1  UNL1        0.0230
      3 C         142.1221  139.8459  167.7839 C.ar    1  UNL1        0.0383
      4 C         140.6981  140.0813  167.3756 C.ar    1  UNL1        0.1386
      5 C         139.9464  141.2591  167.9210 C.ar    1  UNL1        0.0383
      6 C         140.6188  142.2016  168.8747 C.ar    1  UNL1        0.0230
      7 N         143.3874  143.8513  171.1906 N.3     1  UNL1       -0.2035
      8 S         142.7151  142.9088  170.2368 S.O2    1  UNL1        0.0572
      9 O         144.0017  142.7559  169.4810 O.2     1  UNL1       -0.1532
     10 O         141.4285  143.0617  170.9927 O.2     1  UNL1       -0.1532
     11 H         143.6676  143.3435  172.0296 H       1  UNL1        0.1442
     12 H         142.7397  144.5971  171.4449 H       1  UNL1        0.1442
     13 O         140.0258  139.1388  166.4218 O.3     1  UNL1       -0.4755
     14 C         138.5891  139.3502  166.0460 C.3     1  UNL1        0.2054
     15 C         138.2441  140.0336  164.7560 C.3     1  UNL1        0.0488
     16 C         138.2639  141.5311  164.6719 C.3     1  UNL1        0.0212
     17 C         139.3341  142.2238  163.8814 C.3     1  UNL1        0.0722
     18 N         140.7647  142.1439  164.3250 N.3     1  UNL1       -0.2727
     19 C         141.7481  141.0776  163.9428 C.3     1  UNL1        0.0721
     20 C         143.0543  141.3909  164.6102 C.3     1  UNL1        0.0188
     21 C         142.8783  142.6509  165.4050 C.3     1  UNL1        0.0188
     22 C         141.4632  143.1162  165.2286 C.3     1  UNL1        0.0721
@<TRIPOS>BOND
     1     7     8    1
     2     8     9    2
     3     8    10    2
     4     8     1    1
     5     1     2   ar
     6     2     3   ar
     7     3     4   ar
     8     4    13    1
     9    13    14    1
    10    14    15    1
    11    15    16    1
    12    16    17    1
    13    17    18    1
    14    18    19    1
    15    19    20    1
    16    20    21    1
    17    21    22    1
    18     4     5   ar
    19     5     6   ar
    20     6     1   ar
    21    22    18    1
    22     7    11    1
    23     7    12    1
