@<TRIPOS>MOLECULE
*****
 43 46 0 0 0
SMALL
GASTEIGER

@<TRIPOS>ATOM
      1 C         142.2554  144.2638  161.5442 C.3     1  UNL1        0.0781
      2 C         142.9452  144.7105  162.7990 C.3     1  UNL1        0.0372
      3 C         144.0904  143.9136  163.3498 C.3     1  UNL1        0.0738
      4 N         144.5458  142.6698  162.6458 N.3     1  UNL1       -0.2726
      5 C         143.8560  142.2230  161.3909 C.3     1  UNL1        0.0738
      6 C         142.7108  143.0200  160.8401 C.3     1  UNL1        0.0372
      7 N         141.1103  145.0608  160.9934 N.am    1  UNL1       -0.2808
      8 C         140.0563  145.5961  161.9169 C.2     1  UNL1        0.2300
      9 O         138.9111  146.3931  161.3661 O.2     1  UNL1       -0.2745
     10 C         140.0849  144.5123  158.6702 C.3     1  UNL1        0.0233
     11 C         141.0190  145.3225  159.5193 C.3     1  UNL1        0.0934
     12 C         140.1476  145.3345  163.3910 C.3     1  UNL1        0.1116
     13 C         139.7313  144.0035  163.9437 C.ar    1  UNL1       -0.0130
     14 C         140.4227  143.4435  165.1513 C.ar    1  UNL1       -0.0025
     15 C         140.0064  142.1126  165.7039 C.ar    1  UNL1        0.0180
     16 C         138.8988  141.3418  165.0489 C.ar    1  UNL1        0.1057
     17 C         138.2074  141.9018  163.8414 C.ar    1  UNL1        0.0180
     18 C         138.6237  143.2327  163.2888 C.ar    1  UNL1       -0.0025
     19 S         138.4825  140.0108  165.6016 S.O2    1  UNL1        0.0104
     20 C         138.0663  138.6799  166.1542 C.3     1  UNL1        0.1816
     21 O         137.7275  139.7223  164.3380 O.2     1  UNL1       -0.1686
     22 O         139.2375  140.2994  166.8652 O.2     1  UNL1       -0.1686
     23 C         145.6910  141.8728  163.1966 C.3     1  UNL1        0.0724
     24 C         145.4377  140.5410  163.8384 C.3     1  UNL1        0.0217
     25 C         144.0397  140.1379  164.2032 C.3     1  UNL1        0.0239
     26 C         143.1414  139.5269  163.1690 C.ar    1  UNL1       -0.0180
     27 C         141.7134  139.9726  163.0583 C.ar    1  UNL1        0.0255
     28 C         140.8150  139.3615  162.0241 C.ar    1  UNL1        0.1421
     29 F         139.3871  139.8072  161.9133 F       1  UNL1       -0.2041
     30 C         141.3446  138.3048  161.1006 C.ar    1  UNL1        0.0592
     31 C         142.7726  137.8591  161.2113 C.ar    1  UNL1        0.1421
     32 F         143.3022  136.8023  160.2878 F       1  UNL1       -0.2041
     33 C         143.6710  138.4701  162.2455 C.ar    1  UNL1        0.0255
     34 C         143.5400  140.3458  165.6021 C.3     1  UNL1        0.0070
     35 C         143.4890  141.7281  166.1826 C.3     1  UNL1        0.0195
     36 C         142.9893  141.9360  167.5816 C.3     1  UNL1        0.0954
     37 N         142.5407  140.7618  168.4001 N.3     1  UNL1       -0.1594
     38 C         142.5917  139.3796  167.8196 C.3     1  UNL1        0.0954
     39 C         143.0914  139.1716  166.4206 C.3     1  UNL1        0.0195
     40 S         142.0410  140.9697  169.7990 S.O2    1  UNL1        0.0457
     41 C         141.5414  141.1777  171.1980 C.3     1  UNL1        0.1960
     42 O         140.9255  141.8239  169.2736 O.2     1  UNL1       -0.1572
     43 O         143.1565  140.1156  170.3244 O.2     1  UNL1       -0.1572
@<TRIPOS>BOND
     1    10    11    1
     2    11     7    1
     3     7     8   am
     4     8     9    2
     5     8    12    1
     6    12    13    1
     7    13    14   ar
     8    14    15   ar
     9    15    16   ar
    10    16    19    1
    11    19    20    1
    12    19    21    2
    13    19    22    2
    14    16    17   ar
    15    17    18   ar
    16     7     1    1
    17     1     2    1
    18     2     3    1
    19     3     4    1
    20     4    23    1
    21    23    24    1
    22    25    24    1
    23    25    26    1
    24    26    27   ar
    25    27    28   ar
    26    28    29    1
    27    28    30   ar
    28    30    31   ar
    29    31    32    1
    30    31    33   ar
    31    25    34    1
    32    34    35    1
    33    35    36    1
    34    36    37    1
    35    37    40    1
    36    40    41    1
    37    40    42    2
    38    40    43    2
    39    37    38    1
    40    38    39    1
    41     4     5    1
    42     5     6    1
    43    18    13   ar
    44     6     1    1
    45    33    26   ar
    46    39    34    1
@<TRIPOS>MOLECULE
*****
 43 46 0 0 0
SMALL
GASTEIGER

@<TRIPOS>ATOM
      1 C         142.7218  139.2440  159.7584 C.3     1  UNL1        0.0781
      2 C         143.0584  138.7276  161.1259 C.3     1  UNL1        0.0372
      3 C         143.8611  139.5725  162.0701 C.3     1  UNL1        0.0738
      4 N         144.3274  140.9339  161.6469 N.3     1  UNL1       -0.2726
      5 C         143.9909  141.4504  160.2793 C.3     1  UNL1        0.0738
      6 C         143.1881  140.6054  159.3351 C.3     1  UNL1        0.0372
      7 N         141.9191  138.3990  158.8142 N.am    1  UNL1       -0.2808
      8 C         140.4508  138.6538  158.6430 C.2     1  UNL1        0.2300
      9 O         139.6480  137.8088  157.6987 O.2     1  UNL1       -0.2745
     10 C         142.9842  137.5222  156.6128 C.3     1  UNL1        0.0233
     11 C         142.5845  137.2992  158.0412 C.3     1  UNL1        0.0934
     12 C         139.7853  139.7536  159.4160 C.3     1  UNL1        0.1116
     13 C         139.4675  139.5627  160.8695 C.ar    1  UNL1       -0.0130
     14 C         139.0126  138.2231  161.3680 C.ar    1  UNL1       -0.0025
     15 C         138.6948  138.0321  162.8214 C.ar    1  UNL1        0.0180
     16 C         138.8318  139.1808  163.7763 C.ar    1  UNL1        0.1057
     17 C         139.2866  140.5204  163.2778 C.ar    1  UNL1        0.0180
     18 C         139.6044  140.7113  161.8243 C.ar    1  UNL1       -0.0025
     19 S         138.5139  138.9898  165.2298 S.O2    1  UNL1        0.0104
     20 C         138.1961  138.7989  166.6832 C.3     1  UNL1        0.1816
     21 O         138.1409  140.4386  165.3385 O.2     1  UNL1       -0.1686
     22 O         138.8870  137.5411  165.1211 O.2     1  UNL1       -0.1686
     23 C         145.1301  141.7789  162.5911 C.3     1  UNL1        0.0724
     24 C         144.5413  143.0369  163.1574 C.3     1  UNL1        0.0217
     25 C         143.2022  143.0005  163.8323 C.3     1  UNL1        0.0239
     26 C         142.0476  143.7599  163.2492 C.ar    1  UNL1       -0.0180
     27 C         140.7999  143.9641  164.0564 C.ar    1  UNL1        0.0255
     28 C         139.6452  144.7235  163.4732 C.ar    1  UNL1        0.1421
     29 F         138.3975  144.9278  164.2804 F       1  UNL1       -0.2041
     30 C         139.7382  145.2787  162.0829 C.ar    1  UNL1        0.0592
     31 C         140.9859  145.0745  161.2756 C.ar    1  UNL1        0.1421
     32 F         141.0789  145.6297  159.8852 F       1  UNL1       -0.2041
     33 C         142.1406  144.3151  161.8588 C.ar    1  UNL1        0.0255
     34 C         143.0178  142.2048  165.0904 C.3     1  UNL1        0.0070
     35 C         142.4729  140.8089  165.0219 C.3     1  UNL1        0.0195
     36 C         142.2885  140.0132  166.2799 C.3     1  UNL1        0.0954
     37 N         142.6489  140.6133  167.6066 N.3     1  UNL1       -0.1594
     38 C         143.1937  142.0092  167.6751 C.3     1  UNL1        0.0954
     39 C         143.3782  142.8050  166.4170 C.3     1  UNL1        0.0195
     40 S         142.4644  139.8176  168.8646 S.O2    1  UNL1        0.0457
     41 C         142.2800  139.0219  170.1228 C.3     1  UNL1        0.1960
     42 O         143.2296  138.6796  168.2570 O.2     1  UNL1       -0.1572
     43 O         141.6993  140.9557  169.4723 O.2     1  UNL1       -0.1572
@<TRIPOS>BOND
     1    10    11    1
     2    11     7    1
     3     7     8   am
     4     8     9    2
     5     8    12    1
     6    12    13    1
     7    13    14   ar
     8    14    15   ar
     9    15    16   ar
    10    16    19    1
    11    19    20    1
    12    19    21    2
    13    19    22    2
    14    16    17   ar
    15    17    18   ar
    16     7     1    1
    17     1     2    1
    18     2     3    1
    19     3     4    1
    20     4    23    1
    21    23    24    1
    22    25    24    1
    23    25    26    1
    24    26    27   ar
    25    27    28   ar
    26    28    29    1
    27    28    30   ar
    28    30    31   ar
    29    31    32    1
    30    31    33   ar
    31    25    34    1
    32    34    35    1
    33    35    36    1
    34    36    37    1
    35    37    40    1
    36    40    41    1
    37    40    42    2
    38    40    43    2
    39    37    38    1
    40    38    39    1
    41     4     5    1
    42     5     6    1
    43    18    13   ar
    44     6     1    1
    45    33    26   ar
    46    39    34    1
@<TRIPOS>MOLECULE
*****
 43 46 0 0 0
SMALL
GASTEIGER

@<TRIPOS>ATOM
      1 C         142.7029  140.5002  166.7798 C.3     1  UNL1        0.0781
      2 C         142.9421  139.0699  166.3967 C.3     1  UNL1        0.0372
      3 C         143.5520  138.7417  165.0661 C.3     1  UNL1        0.0738
      4 N         143.9226  139.8439  164.1187 N.3     1  UNL1       -0.2726
      5 C         143.6834  141.2744  164.5018 C.3     1  UNL1        0.0738
      6 C         143.0736  141.6025  165.8323 C.3     1  UNL1        0.0372
      7 N         142.0930  140.8284  168.1103 N.am    1  UNL1       -0.2808
      8 C         140.6050  140.9667  168.2397 C.2     1  UNL1        0.2300
      9 O         139.9951  141.2948  169.5703 O.2     1  UNL1       -0.2745
     10 C         143.6066  142.3517  169.5727 C.3     1  UNL1        0.0233
     11 C         142.9711  141.0183  169.3115 C.3     1  UNL1        0.0934
     12 C         139.7269  140.7768  167.0385 C.3     1  UNL1        0.1116
     13 C         139.6815  141.8276  165.9690 C.ar    1  UNL1       -0.0130
     14 C         139.4233  141.4366  164.5440 C.ar    1  UNL1       -0.0025
     15 C         139.3780  142.4874  163.4746 C.ar    1  UNL1        0.0180
     16 C         139.5908  143.9290  163.8300 C.ar    1  UNL1        0.1057
     17 C         139.8490  144.3199  165.2550 C.ar    1  UNL1        0.0180
     18 C         139.8943  143.2692  166.3244 C.ar    1  UNL1       -0.0025
     19 S         139.5455  144.9798  162.7605 S.O2    1  UNL1        0.0104
     20 C         139.5000  146.0305  161.6909 C.3     1  UNL1        0.1816
     21 O         138.1457  144.5667  162.4140 O.2     1  UNL1       -0.1686
     22 O         140.9452  145.3930  163.1069 O.2     1  UNL1       -0.1686
     23 C         144.5325  139.5158  162.7881 C.3     1  UNL1        0.0724
     24 C         143.6684  139.0100  161.6713 C.3     1  UNL1        0.0217
     25 C         142.3583  139.6778  161.3752 C.3     1  UNL1        0.0239
     26 C         141.0842  139.1052  161.9218 C.ar    1  UNL1       -0.0180
     27 C         141.1056  138.3017  163.1883 C.ar    1  UNL1        0.0255
     28 C         139.8314  137.7291  163.7349 C.ar    1  UNL1        0.1421
     29 F         139.8528  136.9256  165.0013 F       1  UNL1       -0.2041
     30 C         138.5359  137.9600  163.0150 C.ar    1  UNL1        0.0592
     31 C         138.5145  138.7635  161.7485 C.ar    1  UNL1        0.1421
     32 F         137.2189  138.9944  161.0286 F       1  UNL1       -0.2041
     33 C         139.7886  139.3361  161.2019 C.ar    1  UNL1        0.0255
     34 C         142.3222  140.9181  160.5325 C.3     1  UNL1        0.0070
     35 C         142.4145  140.8132  159.0390 C.3     1  UNL1        0.0195
     36 C         142.3784  142.0535  158.1963 C.3     1  UNL1        0.0954
     37 N         142.2502  143.3989  158.8471 N.3     1  UNL1       -0.1594
     38 C         142.1580  143.5039  160.3406 C.3     1  UNL1        0.0954
     39 C         142.1940  142.2635  161.1833 C.3     1  UNL1        0.0195
     40 S         142.2142  144.6393  158.0045 S.O2    1  UNL1        0.0457
     41 C         142.1782  145.8797  157.1617 C.3     1  UNL1        0.1960
     42 O         141.9537  145.4642  159.2298 O.2     1  UNL1       -0.1572
     43 O         142.4746  143.8144  156.7791 O.2     1  UNL1       -0.1572
@<TRIPOS>BOND
     1    10    11    1
     2    11     7    1
     3     7     8   am
     4     8     9    2
     5     8    12    1
     6    12    13    1
     7    13    14   ar
     8    14    15   ar
     9    15    16   ar
    10    16    19    1
    11    19    20    1
    12    19    21    2
    13    19    22    2
    14    16    17   ar
    15    17    18   ar
    16     7     1    1
    17     1     2    1
    18     2     3    1
    19     3     4    1
    20     4    23    1
    21    23    24    1
    22    25    24    1
    23    25    26    1
    24    26    27   ar
    25    27    28   ar
    26    28    29    1
    27    28    30   ar
    28    30    31   ar
    29    31    32    1
    30    31    33   ar
    31    25    34    1
    32    34    35    1
    33    35    36    1
    34    36    37    1
    35    37    40    1
    36    40    41    1
    37    40    42    2
    38    40    43    2
    39    37    38    1
    40    38    39    1
    41     4     5    1
    42     5     6    1
    43    18    13   ar
    44     6     1    1
    45    33    26   ar
    46    39    34    1
@<TRIPOS>MOLECULE
*****
 43 46 0 0 0
SMALL
GASTEIGER

@<TRIPOS>ATOM
      1 C         140.7341  138.3007  160.9533 C.3     1  UNL1        0.0781
      2 C         141.3510  137.5637  162.1048 C.3     1  UNL1        0.0372
      3 C         140.6061  137.4387  163.4008 C.3     1  UNL1        0.0738
      4 N         139.2443  138.0506  163.5452 N.3     1  UNL1       -0.2726
      5 C         138.6273  138.7877  162.3935 C.3     1  UNL1        0.0738
      6 C         139.3722  138.9127  161.0976 C.3     1  UNL1        0.0372
      7 N         141.4790  138.4258  159.6573 N.am    1  UNL1       -0.2808
      8 C         142.9644  138.6349  159.6632 C.2     1  UNL1        0.2300
      9 O         143.7093  138.7599  158.3672 O.2     1  UNL1       -0.2745
     10 C         140.3921  139.5949  157.6076 C.3     1  UNL1        0.0233
     11 C         140.7386  138.3417  158.3555 C.3     1  UNL1        0.0934
     12 C         143.7048  138.7189  160.9650 C.3     1  UNL1        0.1116
     13 C         143.7988  140.0281  161.6912 C.ar    1  UNL1       -0.0130
     14 C         143.4426  141.3037  160.9870 C.ar    1  UNL1       -0.0025
     15 C         143.5366  142.6127  161.7132 C.ar    1  UNL1        0.0180
     16 C         143.9869  142.6463  163.1436 C.ar    1  UNL1        0.1057
     17 C         144.3431  141.3707  163.8478 C.ar    1  UNL1        0.0180
     18 C         144.2491  140.0616  163.1216 C.ar    1  UNL1       -0.0025
     19 S         144.0809  143.9554  163.8699 S.O2    1  UNL1        0.0104
     20 C         144.1749  145.2645  164.5960 C.3     1  UNL1        0.1816
     21 O         144.1236  144.6803  162.5574 O.2     1  UNL1       -0.1686
     22 O         144.0381  143.2305  165.1823 O.2     1  UNL1       -0.1686
     23 C         138.4994  137.9256  164.8411 C.3     1  UNL1        0.0724
     24 C         138.2888  139.1338  165.7047 C.3     1  UNL1        0.0217
     25 C         139.3909  140.1374  165.8721 C.3     1  UNL1        0.0239
     26 C         140.4894  139.8869  166.8622 C.ar    1  UNL1       -0.0180
     27 C         141.7588  139.2203  166.4215 C.ar    1  UNL1        0.0255
     28 C         142.8574  138.9698  167.4117 C.ar    1  UNL1        0.1421
     29 F         144.1268  138.3032  166.9710 F       1  UNL1       -0.2041
     30 C         142.6865  139.3859  168.8427 C.ar    1  UNL1        0.0592
     31 C         141.4171  140.0525  169.2834 C.ar    1  UNL1        0.1421
     32 F         141.2462  140.4686  170.7145 F       1  UNL1       -0.2041
     33 C         140.3186  140.3030  168.2933 C.ar    1  UNL1        0.0255
     34 C         139.3946  141.3916  165.0492 C.3     1  UNL1        0.0070
     35 C         138.1569  141.8078  164.3109 C.3     1  UNL1        0.0195
     36 C         138.1606  143.0619  163.4881 C.3     1  UNL1        0.0954
     37 N         139.4018  143.8999  163.4035 N.3     1  UNL1       -0.1594
     38 C         140.6394  143.4837  164.1418 C.3     1  UNL1        0.0954
     39 C         140.6358  142.2295  164.9647 C.3     1  UNL1        0.0195
     40 S         139.4054  145.1540  162.5807 S.O2    1  UNL1        0.0457
     41 C         139.4090  146.4082  161.7578 C.3     1  UNL1        0.1960
     42 O         140.8711  145.3260  162.8493 O.2     1  UNL1       -0.1572
     43 O         137.9398  144.9821  162.3122 O.2     1  UNL1       -0.1572
@<TRIPOS>BOND
     1    10    11    1
     2    11     7    1
     3     7     8   am
     4     8     9    2
     5     8    12    1
     6    12    13    1
     7    13    14   ar
     8    14    15   ar
     9    15    16   ar
    10    16    19    1
    11    19    20    1
    12    19    21    2
    13    19    22    2
    14    16    17   ar
    15    17    18   ar
    16     7     1    1
    17     1     2    1
    18     2     3    1
    19     3     4    1
    20     4    23    1
    21    23    24    1
    22    25    24    1
    23    25    26    1
    24    26    27   ar
    25    27    28   ar
    26    28    29    1
    27    28    30   ar
    28    30    31   ar
    29    31    32    1
    30    31    33   ar
    31    25    34    1
    32    34    35    1
    33    35    36    1
    34    36    37    1
    35    37    40    1
    36    40    41    1
    37    40    42    2
    38    40    43    2
    39    37    38    1
    40    38    39    1
    41     4     5    1
    42     5     6    1
    43    18    13   ar
    44     6     1    1
    45    33    26   ar
    46    39    34    1
@<TRIPOS>MOLECULE
*****
 43 46 0 0 0
SMALL
GASTEIGER

@<TRIPOS>ATOM
      1 C         140.0477  141.4536  166.7171 C.3     1  UNL1        0.0781
      2 C         139.1972  140.8474  165.6405 C.3     1  UNL1        0.0372
      3 C         138.5788  141.7228  164.5911 C.3     1  UNL1        0.0738
      4 N         138.8110  143.2044  164.6182 N.3     1  UNL1       -0.2726
      5 C         139.6615  143.8108  165.6948 C.3     1  UNL1        0.0738
      6 C         140.2799  142.9354  166.7442 C.3     1  UNL1        0.0372
      7 N         140.6661  140.5783  167.7665 N.am    1  UNL1       -0.2808
      8 C         142.1245  140.2351  167.6929 C.2     1  UNL1        0.2300
      9 O         142.7429  139.3597  168.7423 O.2     1  UNL1       -0.2745
     10 C         139.3618  140.9658  169.9797 C.3     1  UNL1        0.0233
     11 C         139.8261  140.0461  168.8895 C.3     1  UNL1        0.0934
     12 C         142.9644  140.7673  166.5699 C.3     1  UNL1        0.1116
     13 C         142.9610  140.0767  165.2382 C.ar    1  UNL1       -0.0130
     14 C         142.1930  138.8010  165.0569 C.ar    1  UNL1       -0.0025
     15 C         142.1896  138.1105  163.7253 C.ar    1  UNL1        0.0180
     16 C         142.9541  138.6957  162.5751 C.ar    1  UNL1        0.1057
     17 C         143.7220  139.9713  162.7564 C.ar    1  UNL1        0.0180
     18 C         143.7255  140.6618  164.0879 C.ar    1  UNL1       -0.0025
     19 S         142.9506  138.0051  161.2434 S.O2    1  UNL1        0.0104
     20 C         142.9471  137.3146  159.9119 C.3     1  UNL1        0.1816
     21 O         144.3038  138.5781  160.9428 O.2     1  UNL1       -0.1686
     22 O         141.5974  137.4321  161.5440 O.2     1  UNL1       -0.1686
     23 C         138.1926  144.0798  163.5688 C.3     1  UNL1        0.0724
     24 C         139.0667  144.8421  162.6176 C.3     1  UNL1        0.0217
     25 C         140.0390  144.1095  161.7412 C.3     1  UNL1        0.0239
     26 C         141.5020  144.1201  162.0718 C.ar    1  UNL1       -0.0180
     27 C         142.4641  143.3221  161.2427 C.ar    1  UNL1        0.0255
     28 C         143.9272  143.3328  161.5733 C.ar    1  UNL1        0.1421
     29 F         144.8894  142.5348  160.7442 F       1  UNL1       -0.2041
     30 C         144.4282  144.1414  162.7331 C.ar    1  UNL1        0.0592
     31 C         143.4660  144.9394  163.5623 C.ar    1  UNL1        0.1421
     32 F         143.9670  145.7480  164.7222 F       1  UNL1       -0.2041
     33 C         142.0030  144.9288  163.2317 C.ar    1  UNL1        0.0255
     34 C         139.5482  143.3663  160.5343 C.3     1  UNL1        0.0070
     35 C         139.7309  143.9537  159.1662 C.3     1  UNL1        0.0195
     36 C         139.2402  143.2105  157.9592 C.3     1  UNL1        0.0954
     37 N         138.5668  141.8799  158.1203 N.3     1  UNL1       -0.1594
     38 C         138.3840  141.2925  159.4883 C.3     1  UNL1        0.0954
     39 C         138.8748  142.0357  160.6953 C.3     1  UNL1        0.0195
     40 S         138.0760  141.1367  156.9133 S.O2    1  UNL1        0.0457
     41 C         137.5853  140.3934  155.7063 C.3     1  UNL1        0.1960
     42 O         137.4692  140.0925  157.8030 O.2     1  UNL1       -0.1572
     43 O         138.6828  142.1808  156.0237 O.2     1  UNL1       -0.1572
@<TRIPOS>BOND
     1    10    11    1
     2    11     7    1
     3     7     8   am
     4     8     9    2
     5     8    12    1
     6    12    13    1
     7    13    14   ar
     8    14    15   ar
     9    15    16   ar
    10    16    19    1
    11    19    20    1
    12    19    21    2
    13    19    22    2
    14    16    17   ar
    15    17    18   ar
    16     7     1    1
    17     1     2    1
    18     2     3    1
    19     3     4    1
    20     4    23    1
    21    23    24    1
    22    25    24    1
    23    25    26    1
    24    26    27   ar
    25    27    28   ar
    26    28    29    1
    27    28    30   ar
    28    30    31   ar
    29    31    32    1
    30    31    33   ar
    31    25    34    1
    32    34    35    1
    33    35    36    1
    34    36    37    1
    35    37    40    1
    36    40    41    1
    37    40    42    2
    38    40    43    2
    39    37    38    1
    40    38    39    1
    41     4     5    1
    42     5     6    1
    43    18    13   ar
    44     6     1    1
    45    33    26   ar
    46    39    34    1
@<TRIPOS>MOLECULE
*****
 43 46 0 0 0
SMALL
GASTEIGER

@<TRIPOS>ATOM
      1 C         142.5979  140.3776  166.7668 C.3     1  UNL1        0.0781
      2 C         143.1446  141.4018  165.8169 C.3     1  UNL1        0.0372
      3 C         143.6988  140.9742  164.4903 C.3     1  UNL1        0.0738
      4 N         143.7064  139.5223  164.1135 N.3     1  UNL1       -0.2726
      5 C         143.1598  138.4980  165.0634 C.3     1  UNL1        0.0738
      6 C         142.6055  138.9257  166.3900 C.3     1  UNL1        0.0372
      7 N         142.0437  140.8053  168.0934 N.am    1  UNL1       -0.2808
      8 C         140.5707  141.0420  168.2497 C.2     1  UNL1        0.2300
      9 O         140.0165  141.4697  169.5763 O.2     1  UNL1       -0.2745
     10 C         143.5864  142.3366  169.5163 C.3     1  UNL1        0.0233
     11 C         142.9623  140.9962  169.2637 C.3     1  UNL1        0.0934
     12 C         139.6520  140.8511  167.0794 C.3     1  UNL1        0.1116
     13 C         139.6965  141.8100  165.9268 C.ar    1  UNL1       -0.0130
     14 C         139.5308  141.3049  164.5242 C.ar    1  UNL1       -0.0025
     15 C         139.5752  142.2638  163.3716 C.ar    1  UNL1        0.0180
     16 C         139.7853  143.7278  163.6216 C.ar    1  UNL1        0.1057
     17 C         139.9510  144.2329  165.0242 C.ar    1  UNL1        0.0180
     18 C         139.9066  143.2740  166.1768 C.ar    1  UNL1       -0.0025
     19 S         139.8297  144.6867  162.4689 S.O2    1  UNL1        0.0104
     20 C         139.8742  145.6456  161.3163 C.3     1  UNL1        0.1816
     21 O         141.0881  145.2898  163.0192 O.2     1  UNL1       -0.1686
     22 O         138.5714  144.0837  161.9187 O.2     1  UNL1       -0.1686
     23 C         144.2606  139.0946  162.7869 C.3     1  UNL1        0.0724
     24 C         143.5880  138.0019  162.0102 C.3     1  UNL1        0.0217
     25 C         142.5432  138.3414  160.9889 C.3     1  UNL1        0.0239
     26 C         141.1005  138.4249  161.3911 C.ar    1  UNL1       -0.0180
     27 C         140.1155  139.1319  160.5080 C.ar    1  UNL1        0.0255
     28 C         138.6728  139.2154  160.9103 C.ar    1  UNL1        0.1421
     29 F         137.6877  139.9224  160.0272 F       1  UNL1       -0.2041
     30 C         138.2152  138.5919  162.1955 C.ar    1  UNL1        0.0592
     31 C         139.2003  137.8849  163.0785 C.ar    1  UNL1        0.1421
     32 F         138.7426  137.2614  164.3638 F       1  UNL1       -0.2041
     33 C         140.6429  137.8014  162.6763 C.ar    1  UNL1        0.0255
     34 C         142.9409  138.5975  159.5655 C.3     1  UNL1        0.0070
     35 C         143.6013  139.8917  159.1925 C.3     1  UNL1        0.0195
     36 C         143.9991  140.1477  157.7691 C.3     1  UNL1        0.0954
     37 N         143.7365  139.1097  156.7186 N.3     1  UNL1       -0.1594
     38 C         143.0762  137.8155  157.0915 C.3     1  UNL1        0.0954
     39 C         142.6783  137.5594  158.5150 C.3     1  UNL1        0.0195
     40 S         144.1343  139.3657  155.2952 S.O2    1  UNL1        0.0457
     41 C         144.5321  139.6217  153.8717 C.3     1  UNL1        0.1960
     42 O         143.0335  140.3768  155.1694 O.2     1  UNL1       -0.1572
     43 O         145.2351  138.3546  155.4209 O.2     1  UNL1       -0.1572
@<TRIPOS>BOND
     1    10    11    1
     2    11     7    1
     3     7     8   am
     4     8     9    2
     5     8    12    1
     6    12    13    1
     7    13    14   ar
     8    14    15   ar
     9    15    16   ar
    10    16    19    1
    11    19    20    1
    12    19    21    2
    13    19    22    2
    14    16    17   ar
    15    17    18   ar
    16     7     1    1
    17     1     2    1
    18     2     3    1
    19     3     4    1
    20     4    23    1
    21    23    24    1
    22    25    24    1
    23    25    26    1
    24    26    27   ar
    25    27    28   ar
    26    28    29    1
    27    28    30   ar
    28    30    31   ar
    29    31    32    1
    30    31    33   ar
    31    25    34    1
    32    34    35    1
    33    35    36    1
    34    36    37    1
    35    37    40    1
    36    40    41    1
    37    40    42    2
    38    40    43    2
    39    37    38    1
    40    38    39    1
    41     4     5    1
    42     5     6    1
    43    18    13   ar
    44     6     1    1
    45    33    26   ar
    46    39    34    1
@<TRIPOS>MOLECULE
*****
 43 46 0 0 0
SMALL
GASTEIGER

@<TRIPOS>ATOM
      1 C         142.5362  139.0767  159.5695 C.3     1  UNL1        0.0781
      2 C         143.1491  140.4061  159.2423 C.3     1  UNL1        0.0372
      3 C         143.9605  141.1322  160.2740 C.3     1  UNL1        0.0738
      4 N         144.1590  140.5289  161.6329 N.3     1  UNL1       -0.2726
      5 C         143.5461  139.1995  161.9601 C.3     1  UNL1        0.0738
      6 C         142.7347  138.4734  160.9284 C.3     1  UNL1        0.0372
      7 N         141.7248  138.3506  158.5378 N.am    1  UNL1       -0.2808
      8 C         140.2879  138.7206  158.3170 C.2     1  UNL1        0.2300
      9 O         139.4766  137.9945  157.2853 O.2     1  UNL1       -0.2745
     10 C         143.1664  137.5911  156.5143 C.3     1  UNL1        0.0233
     11 C         142.3501  137.2546  157.7269 C.3     1  UNL1        0.0934
     12 C         139.6626  139.8167  159.1278 C.3     1  UNL1        0.1116
     13 C         139.3680  139.5989  160.5825 C.ar    1  UNL1       -0.0130
     14 C         139.5439  140.7231  161.5598 C.ar    1  UNL1       -0.0025
     15 C         139.2493  140.5052  163.0144 C.ar    1  UNL1        0.0180
     16 C         138.7789  139.1632  163.4916 C.ar    1  UNL1        0.1057
     17 C         138.6031  138.0390  162.5142 C.ar    1  UNL1        0.0180
     18 C         138.8976  138.2569  161.0597 C.ar    1  UNL1       -0.0025
     19 S         138.4843  138.9454  164.9462 S.O2    1  UNL1        0.0104
     20 C         138.1898  138.7277  166.4007 C.3     1  UNL1        0.1816
     21 O         138.0839  140.3847  165.0806 O.2     1  UNL1       -0.1686
     22 O         138.8847  137.5061  164.8118 O.2     1  UNL1       -0.1686
     23 C         144.9703  141.2550  162.6646 C.3     1  UNL1        0.0724
     24 C         144.5222  142.5969  163.1631 C.3     1  UNL1        0.0217
     25 C         143.1649  142.7519  163.7824 C.3     1  UNL1        0.0239
     26 C         142.1144  143.5700  163.0918 C.ar    1  UNL1       -0.0180
     27 C         142.3558  144.0827  161.7029 C.ar    1  UNL1        0.0255
     28 C         141.3052  144.9008  161.0122 C.ar    1  UNL1        0.1421
     29 F         141.5466  145.4134  159.6234 F       1  UNL1       -0.2041
     30 C         140.0132  145.2063  161.7104 C.ar    1  UNL1        0.0592
     31 C         139.7718  144.6936  163.0993 C.ar    1  UNL1        0.1421
     32 F         138.4798  144.9991  163.7975 F       1  UNL1       -0.2041
     33 C         140.8223  143.8755  163.7900 C.ar    1  UNL1        0.0255
     34 C         142.8581  142.0889  165.0924 C.3     1  UNL1        0.0070
     35 C         143.2678  142.7434  166.3785 C.3     1  UNL1        0.0195
     36 C         142.9610  142.0803  167.6885 C.3     1  UNL1        0.0954
     37 N         142.2445  140.7628  167.7126 N.3     1  UNL1       -0.1594
     38 C         141.8347  140.1083  166.4266 C.3     1  UNL1        0.0954
     39 C         142.1416  140.7713  165.1165 C.3     1  UNL1        0.0195
     40 S         141.9377  140.0997  169.0226 S.O2    1  UNL1        0.0457
     41 C         141.6309  139.4366  170.3327 C.3     1  UNL1        0.1960
     42 O         140.5374  139.8295  168.5578 O.2     1  UNL1       -0.1572
     43 O         143.3380  140.3700  169.4873 O.2     1  UNL1       -0.1572
@<TRIPOS>BOND
     1    10    11    1
     2    11     7    1
     3     7     8   am
     4     8     9    2
     5     8    12    1
     6    12    13    1
     7    13    14   ar
     8    14    15   ar
     9    15    16   ar
    10    16    19    1
    11    19    20    1
    12    19    21    2
    13    19    22    2
    14    16    17   ar
    15    17    18   ar
    16     7     1    1
    17     1     2    1
    18     2     3    1
    19     3     4    1
    20     4    23    1
    21    23    24    1
    22    25    24    1
    23    25    26    1
    24    26    27   ar
    25    27    28   ar
    26    28    29    1
    27    28    30   ar
    28    30    31   ar
    29    31    32    1
    30    31    33   ar
    31    25    34    1
    32    34    35    1
    33    35    36    1
    34    36    37    1
    35    37    40    1
    36    40    41    1
    37    40    42    2
    38    40    43    2
    39    37    38    1
    40    38    39    1
    41     4     5    1
    42     5     6    1
    43    18    13   ar
    44     6     1    1
    45    33    26   ar
    46    39    34    1
@<TRIPOS>MOLECULE
*****
 43 46 0 0 0
SMALL
GASTEIGER

@<TRIPOS>ATOM
      1 C         142.5648  140.4386  166.6932 C.3     1  UNL1        0.0781
      2 C         142.5078  138.9848  166.3285 C.3     1  UNL1        0.0372
      3 C         143.0523  138.5204  165.0101 C.3     1  UNL1        0.0738
      4 N         143.6536  139.5099  164.0566 N.3     1  UNL1       -0.2726
      5 C         143.7106  140.9638  164.4213 C.3     1  UNL1        0.0738
      6 C         143.1661  141.4282  165.7396 C.3     1  UNL1        0.0372
      7 N         142.0204  140.9030  168.0115 N.am    1  UNL1       -0.2808
      8 C         140.5503  141.1568  168.1684 C.2     1  UNL1        0.2300
      9 O         140.0059  141.6211  169.4867 O.2     1  UNL1       -0.2745
     10 C         143.3555  142.5027  169.5633 C.3     1  UNL1        0.0233
     11 C         142.9459  141.1136  169.1730 C.3     1  UNL1        0.0934
     12 C         139.6247  140.9462  167.0070 C.3     1  UNL1        0.1116
     13 C         139.7145  141.8390  165.8049 C.ar    1  UNL1       -0.0130
     14 C         139.8301  143.3241  165.9806 C.ar    1  UNL1       -0.0025
     15 C         139.9199  144.2168  164.7786 C.ar    1  UNL1        0.0180
     16 C         139.8941  143.6243  163.4008 C.ar    1  UNL1        0.1057
     17 C         139.7784  142.1392  163.2250 C.ar    1  UNL1        0.0180
     18 C         139.6886  141.2465  164.4271 C.ar    1  UNL1       -0.0025
     19 S         139.9838  144.5171  162.1987 S.O2    1  UNL1        0.0104
     20 C         140.0737  145.4098  160.9966 C.3     1  UNL1        0.1816
     21 O         141.4214  144.1290  162.0179 O.2     1  UNL1       -0.1686
     22 O         138.5463  144.9051  162.3794 O.2     1  UNL1       -0.1686
     23 C         144.1980  139.0455  162.7383 C.3     1  UNL1        0.0724
     24 C         143.4993  137.9560  161.9801 C.3     1  UNL1        0.0217
     25 C         142.4722  138.3034  160.9436 C.3     1  UNL1        0.0239
     26 C         141.0226  138.3820  161.3209 C.ar    1  UNL1       -0.0180
     27 C         140.5435  137.7487  162.5935 C.ar    1  UNL1        0.0255
     28 C         139.0938  137.8273  162.9708 C.ar    1  UNL1        0.1421
     29 F         138.6147  137.1940  164.2434 F       1  UNL1       -0.2041
     30 C         138.1234  138.5392  162.0757 C.ar    1  UNL1        0.0592
     31 C         138.6025  139.1725  160.8031 C.ar    1  UNL1        0.1421
     32 F         137.6320  139.8845  159.9079 F       1  UNL1       -0.2041
     33 C         140.0521  139.0940  160.4258 C.ar    1  UNL1        0.0255
     34 C         142.8947  138.5722  159.5297 C.3     1  UNL1        0.0070
     35 C         142.6700  137.5349  158.4696 C.3     1  UNL1        0.0195
     36 C         143.0925  137.8037  157.0557 C.3     1  UNL1        0.0954
     37 N         143.7398  139.1098  156.7018 N.3     1  UNL1       -0.1594
     38 C         143.9645  140.1470  157.7617 C.3     1  UNL1        0.0954
     39 C         143.5420  139.8783  159.1757 C.3     1  UNL1        0.0195
     40 S         144.1623  139.3786  155.2879 S.O2    1  UNL1        0.0457
     41 C         144.5848  139.6474  153.8739 C.3     1  UNL1        0.1960
     42 O         145.2350  138.3373  155.4105 O.2     1  UNL1       -0.1572
     43 O         143.0896  140.4198  155.1652 O.2     1  UNL1       -0.1572
@<TRIPOS>BOND
     1    10    11    1
     2    11     7    1
     3     7     8   am
     4     8     9    2
     5     8    12    1
     6    12    13    1
     7    13    14   ar
     8    14    15   ar
     9    15    16   ar
    10    16    19    1
    11    19    20    1
    12    19    21    2
    13    19    22    2
    14    16    17   ar
    15    17    18   ar
    16     7     1    1
    17     1     2    1
    18     2     3    1
    19     3     4    1
    20     4    23    1
    21    23    24    1
    22    25    24    1
    23    25    26    1
    24    26    27   ar
    25    27    28   ar
    26    28    29    1
    27    28    30   ar
    28    30    31   ar
    29    31    32    1
    30    31    33   ar
    31    25    34    1
    32    34    35    1
    33    35    36    1
    34    36    37    1
    35    37    40    1
    36    40    41    1
    37    40    42    2
    38    40    43    2
    39    37    38    1
    40    38    39    1
    41     4     5    1
    42     5     6    1
    43    18    13   ar
    44     6     1    1
    45    33    26   ar
    46    39    34    1
@<TRIPOS>MOLECULE
*****
 43 46 0 0 0
SMALL
GASTEIGER

@<TRIPOS>ATOM
      1 C         141.4970  138.4028  159.9432 C.3     1  UNL1        0.0781
      2 C         142.2680  138.0862  161.1903 C.3     1  UNL1        0.0372
      3 C         141.5434  137.8721  162.4861 C.3     1  UNL1        0.0738
      4 N         140.0477  137.9745  162.5348 N.3     1  UNL1       -0.2726
      5 C         139.2766  138.2911  161.2877 C.3     1  UNL1        0.0738
      6 C         140.0012  138.5053  159.9919 C.3     1  UNL1        0.0372
      7 N         142.2216  138.6170  158.6475 N.am    1  UNL1       -0.2808
      8 C         142.3431  139.9984  158.0755 C.2     1  UNL1        0.2300
      9 O         143.0677  140.2126  156.7798 O.2     1  UNL1       -0.2745
     10 C         142.0490  136.7543  156.8446 C.3     1  UNL1        0.0233
     11 C         142.8248  137.4499  157.9236 C.3     1  UNL1        0.0934
     12 C         141.7399  141.1656  158.7993 C.3     1  UNL1        0.1116
     13 C         142.3264  141.6252  160.1012 C.ar    1  UNL1       -0.0130
     14 C         141.4370  141.8427  161.2893 C.ar    1  UNL1       -0.0025
     15 C         142.0235  142.3023  162.5911 C.ar    1  UNL1        0.0180
     16 C         143.4995  142.5444  162.7048 C.ar    1  UNL1        0.1057
     17 C         144.3889  142.3270  161.5167 C.ar    1  UNL1        0.0180
     18 C         143.8024  141.8674  160.2149 C.ar    1  UNL1       -0.0025
     19 S         144.0860  143.0041  164.0067 S.O2    1  UNL1        0.0104
     20 C         144.6725  143.4637  165.3085 C.3     1  UNL1        0.1816
     21 O         144.2067  141.5780  164.4557 O.2     1  UNL1       -0.1686
     22 O         143.9652  144.4302  163.5576 O.2     1  UNL1       -0.1686
     23 C         139.3231  137.7603  163.8305 C.3     1  UNL1        0.0724
     24 C         138.4127  138.8255  164.3658 C.3     1  UNL1        0.0217
     25 C         138.9882  140.0964  164.9168 C.3     1  UNL1        0.0239
     26 C         138.6876  141.4064  164.2509 C.ar    1  UNL1       -0.0180
     27 C         138.7570  142.6813  165.0382 C.ar    1  UNL1        0.0255
     28 C         138.4564  143.9914  164.3722 C.ar    1  UNL1        0.1421
     29 F         138.5259  145.2663  165.1595 F       1  UNL1       -0.2041
     30 C         138.0864  144.0265  162.9190 C.ar    1  UNL1        0.0592
     31 C         138.0170  142.7516  162.1318 C.ar    1  UNL1        0.1421
     32 F         137.6469  142.7868  160.6785 F       1  UNL1       -0.2041
     33 C         138.3175  141.4416  162.7977 C.ar    1  UNL1        0.0255
     34 C         139.8641  140.0573  166.1338 C.3     1  UNL1        0.0070
     35 C         141.3566  140.0506  165.9837 C.3     1  UNL1        0.0195
     36 C         142.2326  140.0115  167.2007 C.3     1  UNL1        0.0954
     37 N         141.6162  139.9791  168.5678 N.3     1  UNL1       -0.1594
     38 C         140.1238  139.9859  168.7179 C.3     1  UNL1        0.0954
     39 C         139.2477  140.0250  167.5009 C.3     1  UNL1        0.0195
     40 S         142.4922  139.9400  169.7848 S.O2    1  UNL1        0.0457
     41 C         143.3682  139.9010  171.0019 C.3     1  UNL1        0.1960
     42 O         142.9718  138.5731  169.3956 O.2     1  UNL1       -0.1572
     43 O         142.0125  141.3069  170.1739 O.2     1  UNL1       -0.1572
@<TRIPOS>BOND
     1    10    11    1
     2    11     7    1
     3     7     8   am
     4     8     9    2
     5     8    12    1
     6    12    13    1
     7    13    14   ar
     8    14    15   ar
     9    15    16   ar
    10    16    19    1
    11    19    20    1
    12    19    21    2
    13    19    22    2
    14    16    17   ar
    15    17    18   ar
    16     7     1    1
    17     1     2    1
    18     2     3    1
    19     3     4    1
    20     4    23    1
    21    23    24    1
    22    25    24    1
    23    25    26    1
    24    26    27   ar
    25    27    28   ar
    26    28    29    1
    27    28    30   ar
    28    30    31   ar
    29    31    32    1
    30    31    33   ar
    31    25    34    1
    32    34    35    1
    33    35    36    1
    34    36    37    1
    35    37    40    1
    36    40    41    1
    37    40    42    2
    38    40    43    2
    39    37    38    1
    40    38    39    1
    41     4     5    1
    42     5     6    1
    43    18    13   ar
    44     6     1    1
    45    33    26   ar
    46    39    34    1
