@<TRIPOS>MOLECULE
*****
 25 27 0 0 0
SMALL
GASTEIGER

@<TRIPOS>ATOM
      1 C         140.8103  140.2389  166.6227 C.3     1  UNL1        0.1452
      2 O         142.2645  140.3005  166.9855 O.3     1  UNL1       -0.3768
      3 H         142.7877  139.8553  166.3007 H       1  UNL1        0.2112
      4 C         141.1543  139.4869  165.3712 C.ar    1  UNL1        0.0264
      5 C         140.7064  138.0652  165.2034 C.ar    1  UNL1        0.0015
      6 C         141.0504  137.3133  163.9519 C.ar    1  UNL1        0.0204
      7 C         141.8424  137.9830  162.8683 C.ar    1  UNL1        0.0989
      8 N         142.2903  139.4046  163.0361 N.ar    1  UNL1       -0.2426
      9 C         141.9463  140.1566  164.2875 C.ar    1  UNL1        0.0972
     10 C         140.4663  140.9909  167.8741 C.ar    1  UNL1        0.0264
     11 C         140.7841  142.4528  167.9820 C.ar    1  UNL1        0.0015
     12 C         140.4400  143.2048  169.2335 C.ar    1  UNL1        0.0204
     13 C         139.7782  142.4948  170.3771 C.ar    1  UNL1        0.0989
     14 N         139.4604  141.0329  170.2692 N.ar    1  UNL1       -0.2426
     15 C         139.8044  140.2809  169.0178 C.ar    1  UNL1        0.0972
     16 N         138.4481  139.2118  166.9623 N.3     1  UNL1       -0.3164
     17 C         139.3561  140.1773  166.2599 C.3     1  UNL1        0.1066
     18 H         137.5019  139.3047  166.5930 H       1  UNL1        0.1192
     19 H         138.4444  139.4143  167.9620 H       1  UNL1        0.1192
     20 C         138.8099  141.0813  165.1948 C.ar    1  UNL1       -0.0053
     21 C         137.9384  140.5211  164.1101 C.ar    1  UNL1       -0.0029
     22 C         137.3922  141.4250  163.0450 C.ar    1  UNL1       -0.0003
     23 C         137.7174  142.8892  163.0645 C.ar    1  UNL1       -0.0000
     24 C         138.5890  143.4494  164.1493 C.ar    1  UNL1       -0.0003
     25 C         139.1352  142.5455  165.2144 C.ar    1  UNL1       -0.0029
@<TRIPOS>BOND
     1    16    17    1
     2    17    20    1
     3    20    21   ar
     4    21    22   ar
     5    22    23   ar
     6    23    24   ar
     7    24    25   ar
     8    17     1    1
     9     1     2    1
    10     1     4    1
    11     4     5   ar
    12     5     6   ar
    13     6     7   ar
    14     7     8   ar
    15     8     9   ar
    16     1    10    1
    17    10    11   ar
    18    11    12   ar
    19    12    13   ar
    20    13    14   ar
    21    14    15   ar
    22    25    20   ar
    23     9     4   ar
    24    15    10   ar
    25    16    18    1
    26    16    19    1
    27     2     3    1
@<TRIPOS>MOLECULE
*****
 25 27 0 0 0
SMALL
GASTEIGER

@<TRIPOS>ATOM
      1 C         140.7957  140.2304  166.6064 C.3     1  UNL1        0.1452
      2 O         142.2511  140.2876  166.9651 O.3     1  UNL1       -0.3768
      3 H         142.3585  140.7583  167.8064 H       1  UNL1        0.2112
      4 C         140.4573  140.9822  167.8595 C.ar    1  UNL1        0.0264
      5 C         140.7768  142.4439  167.9666 C.ar    1  UNL1        0.0015
      6 C         140.4384  143.1957  169.2197 C.ar    1  UNL1        0.0204
      7 C         139.7805  142.4859  170.3657 C.ar    1  UNL1        0.0989
      8 N         139.4610  141.0242  170.2586 N.ar    1  UNL1       -0.2426
      9 C         139.7994  140.2724  169.0055 C.ar    1  UNL1        0.0972
     10 C         141.1341  139.4785  165.3534 C.ar    1  UNL1        0.0264
     11 C         140.6936  138.0538  165.1915 C.ar    1  UNL1        0.0015
     12 C         141.0321  137.3020  163.9383 C.ar    1  UNL1        0.0204
     13 C         141.8109  137.9749  162.8472 C.ar    1  UNL1        0.0989
     14 N         142.2514  139.3995  163.0092 N.ar    1  UNL1       -0.2426
     15 C         141.9130  140.1514  164.2622 C.ar    1  UNL1        0.0972
     16 N         138.4292  139.2182  166.9605 N.3     1  UNL1       -0.3164
     17 C         139.3404  140.1731  166.2478 C.3     1  UNL1        0.1066
     18 H         137.4826  139.3128  166.5927 H       1  UNL1        0.1192
     19 H         138.4289  139.4292  167.9584 H       1  UNL1        0.1192
     20 C         138.7961  141.0708  165.1763 C.ar    1  UNL1       -0.0053
     21 C         139.1044  142.5386  165.1995 C.ar    1  UNL1       -0.0029
     22 C         138.5602  143.4363  164.1280 C.ar    1  UNL1       -0.0003
     23 C         137.7076  142.8662  163.0335 C.ar    1  UNL1       -0.0000
     24 C         137.3992  141.3984  163.0103 C.ar    1  UNL1       -0.0003
     25 C         137.9435  140.5007  164.0817 C.ar    1  UNL1       -0.0029
@<TRIPOS>BOND
     1    16    17    1
     2    17    20    1
     3    20    21   ar
     4    21    22   ar
     5    22    23   ar
     6    23    24   ar
     7    24    25   ar
     8    17     1    1
     9     1     2    1
    10     1     4    1
    11     4     5   ar
    12     5     6   ar
    13     6     7   ar
    14     7     8   ar
    15     8     9   ar
    16     1    10    1
    17    10    11   ar
    18    11    12   ar
    19    12    13   ar
    20    13    14   ar
    21    14    15   ar
    22    25    20   ar
    23     9     4   ar
    24    15    10   ar
    25    16    18    1
    26    16    19    1
    27     2     3    1
@<TRIPOS>MOLECULE
*****
 25 27 0 0 0
SMALL
GASTEIGER

@<TRIPOS>ATOM
      1 C         140.5177  140.2806  166.3905 C.3     1  UNL1        0.1452
      2 O         139.0631  140.4421  166.0617 O.3     1  UNL1       -0.3768
      3 H         138.8775  140.0281  165.2043 H       1  UNL1        0.2112
      4 C         140.7276  139.5444  165.1006 C.ar    1  UNL1        0.0264
      5 C         141.0126  138.0718  165.1153 C.ar    1  UNL1        0.0015
      6 C         141.2225  137.3356  163.8253 C.ar    1  UNL1        0.0204
      7 C         141.1473  138.0720  162.5207 C.ar    1  UNL1        0.0989
      8 N         140.8623  139.5446  162.5060 N.ar    1  UNL1       -0.2426
      9 C         140.6524  140.2808  163.7959 C.ar    1  UNL1        0.0972
     10 C         140.3078  141.0168  167.6804 C.ar    1  UNL1        0.0264
     11 C         140.7157  142.4555  167.7978 C.ar    1  UNL1        0.0015
     12 C         140.5058  143.1917  169.0878 C.ar    1  UNL1        0.0204
     13 C         139.8881  142.4893  170.2603 C.ar    1  UNL1        0.0989
     14 N         139.4802  141.0506  170.1429 N.ar    1  UNL1       -0.2426
     15 C         139.6900  140.3144  168.8530 C.ar    1  UNL1        0.0972
     16 N         142.3856  139.3215  167.9206 N.3     1  UNL1       -0.3164
     17 C         141.9723  140.1191  166.7193 C.3     1  UNL1        0.1066
     18 H         143.4031  139.3164  167.9917 H       1  UNL1        0.1192
     19 H         142.0466  138.3642  167.8262 H       1  UNL1        0.1192
     20 C         143.0135  140.7552  165.8469 C.ar    1  UNL1       -0.0053
     21 C         143.9784  139.8973  165.0834 C.ar    1  UNL1       -0.0029
     22 C         145.0197  140.5334  164.2110 C.ar    1  UNL1       -0.0003
     23 C         145.0961  142.0275  164.1020 C.ar    1  UNL1       -0.0000
     24 C         144.1312  142.8855  164.8655 C.ar    1  UNL1       -0.0003
     25 C         143.0899  142.2494  165.7379 C.ar    1  UNL1       -0.0029
@<TRIPOS>BOND
     1    16    17    1
     2    17    20    1
     3    20    21   ar
     4    21    22   ar
     5    22    23   ar
     6    23    24   ar
     7    24    25   ar
     8    17     1    1
     9     1     2    1
    10     1     4    1
    11     4     5   ar
    12     5     6   ar
    13     6     7   ar
    14     7     8   ar
    15     8     9   ar
    16     1    10    1
    17    10    11   ar
    18    11    12   ar
    19    12    13   ar
    20    13    14   ar
    21    14    15   ar
    22    25    20   ar
    23     9     4   ar
    24    15    10   ar
    25    16    18    1
    26    16    19    1
    27     2     3    1
@<TRIPOS>MOLECULE
*****
 25 27 0 0 0
SMALL
GASTEIGER

@<TRIPOS>ATOM
      1 C         140.5151  140.2668  166.3825 C.3     1  UNL1        0.1452
      2 O         139.0617  140.4358  166.0521 O.3     1  UNL1       -0.3768
      3 H         138.6219  140.9215  166.7673 H       1  UNL1        0.2112
      4 C         140.3076  141.0037  167.6724 C.ar    1  UNL1        0.0264
      5 C         140.7182  142.4417  167.7892 C.ar    1  UNL1        0.0015
      6 C         140.5106  143.1785  169.0792 C.ar    1  UNL1        0.0204
      7 C         139.8925  142.4774  170.2523 C.ar    1  UNL1        0.0989
      8 N         139.4820  141.0394  170.1356 N.ar    1  UNL1       -0.2426
      9 C         139.6895  140.3025  168.8456 C.ar    1  UNL1        0.0972
     10 C         140.7227  139.5300  165.0926 C.ar    1  UNL1        0.0264
     11 C         141.0043  138.0567  165.1073 C.ar    1  UNL1        0.0015
     12 C         141.2118  137.3199  163.8173 C.ar    1  UNL1        0.0204
     13 C         141.1377  138.0563  162.5126 C.ar    1  UNL1        0.0989
     14 N         140.8561  139.5296  162.4979 N.ar    1  UNL1       -0.2426
     15 C         140.6486  140.2664  163.7878 C.ar    1  UNL1        0.0972
     16 N         142.3766  139.2937  167.9115 N.3     1  UNL1       -0.3164
     17 C         141.9685  140.0979  166.7128 C.3     1  UNL1        0.1066
     18 H         143.3940  139.2840  167.9841 H       1  UNL1        0.1192
     19 H         142.0337  138.3382  167.8128 H       1  UNL1        0.1192
     20 C         143.0138  140.7330  165.8445 C.ar    1  UNL1       -0.0053
     21 C         143.9768  139.8740  165.0799 C.ar    1  UNL1       -0.0029
     22 C         145.0221  140.5091  164.2116 C.ar    1  UNL1       -0.0003
     23 C         145.1043  142.0033  164.1078 C.ar    1  UNL1       -0.0000
     24 C         144.1413  142.8623  164.8724 C.ar    1  UNL1       -0.0003
     25 C         143.0960  142.2272  165.7408 C.ar    1  UNL1       -0.0029
@<TRIPOS>BOND
     1    16    17    1
     2    17    20    1
     3    20    21   ar
     4    21    22   ar
     5    22    23   ar
     6    23    24   ar
     7    24    25   ar
     8    17     1    1
     9     1     2    1
    10     1     4    1
    11     4     5   ar
    12     5     6   ar
    13     6     7   ar
    14     7     8   ar
    15     8     9   ar
    16     1    10    1
    17    10    11   ar
    18    11    12   ar
    19    12    13   ar
    20    13    14   ar
    21    14    15   ar
    22    25    20   ar
    23     9     4   ar
    24    15    10   ar
    25    16    18    1
    26    16    19    1
    27     2     3    1
@<TRIPOS>MOLECULE
*****
 25 27 0 0 0
SMALL
GASTEIGER

@<TRIPOS>ATOM
      1 C         139.7953  140.1280  167.3391 C.3     1  UNL1        0.1452
      2 O         138.7438  139.2450  167.9431 O.3     1  UNL1       -0.3768
      3 H         138.8313  139.2522  168.9091 H       1  UNL1        0.2112
      4 C         140.3106  140.4521  168.7100 C.ar    1  UNL1        0.0264
      5 C         141.6068  139.8635  169.1826 C.ar    1  UNL1        0.0015
      6 C         142.1221  140.1877  170.5536 C.ar    1  UNL1        0.0204
      7 C         141.3412  141.1004  171.4519 C.ar    1  UNL1        0.0989
      8 N         140.0450  141.6891  170.9793 N.ar    1  UNL1       -0.2426
      9 C         139.5297  141.3650  169.6084 C.ar    1  UNL1        0.0972
     10 C         139.2800  139.8039  165.9683 C.ar    1  UNL1        0.0264
     11 C         139.4638  138.4262  165.4043 C.ar    1  UNL1        0.0015
     12 C         138.9484  138.1021  164.0333 C.ar    1  UNL1        0.0204
     13 C         138.2493  139.1557  163.2264 C.ar    1  UNL1        0.0989
     14 N         138.0656  140.5334  163.7904 N.ar    1  UNL1       -0.2426
     15 C         138.5809  140.8575  165.1613 C.ar    1  UNL1        0.0972
     16 N         140.7963  142.4943  166.9533 N.3     1  UNL1       -0.3164
     17 C         140.8467  141.0110  166.7352 C.3     1  UNL1        0.1066
     18 H         141.5819  142.9352  166.4749 H       1  UNL1        0.1192
     19 H         140.8516  142.6931  167.9522 H       1  UNL1        0.1192
     20 C         141.9485  140.4109  165.9130 C.ar    1  UNL1       -0.0053
     21 C         142.2745  140.9817  164.5648 C.ar    1  UNL1       -0.0029
     22 C         143.3762  140.3816  163.7427 C.ar    1  UNL1       -0.0003
     23 C         144.1520  139.2106  164.2688 C.ar    1  UNL1       -0.0000
     24 C         143.8260  138.6396  165.6171 C.ar    1  UNL1       -0.0003
     25 C         142.7243  139.2398  166.4392 C.ar    1  UNL1       -0.0029
@<TRIPOS>BOND
     1    16    17    1
     2    17    20    1
     3    20    21   ar
     4    21    22   ar
     5    22    23   ar
     6    23    24   ar
     7    24    25   ar
     8    17     1    1
     9     1     2    1
    10     1     4    1
    11     4     5   ar
    12     5     6   ar
    13     6     7   ar
    14     7     8   ar
    15     8     9   ar
    16     1    10    1
    17    10    11   ar
    18    11    12   ar
    19    12    13   ar
    20    13    14   ar
    21    14    15   ar
    22    25    20   ar
    23     9     4   ar
    24    15    10   ar
    25    16    18    1
    26    16    19    1
    27     2     3    1
@<TRIPOS>MOLECULE
*****
 25 27 0 0 0
SMALL
GASTEIGER

@<TRIPOS>ATOM
      1 C         139.7915  140.0919  167.3393 C.3     1  UNL1        0.1452
      2 O         138.7491  139.1946  167.9379 O.3     1  UNL1       -0.3768
      3 H         138.2153  138.8017  167.2296 H       1  UNL1        0.2112
      4 C         139.2845  139.7648  165.9660 C.ar    1  UNL1        0.0264
      5 C         139.4586  138.3818  165.4120 C.ar    1  UNL1        0.0015
      6 C         138.9516  138.0548  164.0386 C.ar    1  UNL1        0.0204
      7 C         138.2706  139.1107  163.2193 C.ar    1  UNL1        0.0989
      8 N         138.0965  140.4937  163.7734 N.ar    1  UNL1       -0.2426
      9 C         138.6035  140.8208  165.1467 C.ar    1  UNL1        0.0972
     10 C         140.2984  140.4190  168.7126 C.ar    1  UNL1        0.0264
     11 C         141.6162  139.8722  169.1756 C.ar    1  UNL1        0.0015
     12 C         142.1231  140.1993  170.5490 C.ar    1  UNL1        0.0204
     13 C         141.3123  141.0733  171.4592 C.ar    1  UNL1        0.0989
     14 N         139.9945  141.6201  170.9962 N.ar    1  UNL1       -0.2426
     15 C         139.4876  141.2930  169.6230 C.ar    1  UNL1        0.0972
     16 N         140.7518  142.4733  166.9433 N.3     1  UNL1       -0.3164
     17 C         140.8338  140.9893  166.7408 C.3     1  UNL1        0.1066
     18 H         141.5352  142.9247  166.4712 H       1  UNL1        0.1192
     19 H         140.7895  142.6830  167.9408 H       1  UNL1        0.1192
     20 C         141.9582  140.4027  165.9397 C.ar    1  UNL1       -0.0053
     21 C         142.6836  139.1896  166.4419 C.ar    1  UNL1       -0.0029
     22 C         143.8080  138.6030  165.6409 C.ar    1  UNL1       -0.0003
     23 C         144.2069  139.2294  164.3377 C.ar    1  UNL1       -0.0000
     24 C         143.4815  140.4425  163.8354 C.ar    1  UNL1       -0.0003
     25 C         142.3571  141.0292  164.6365 C.ar    1  UNL1       -0.0029
@<TRIPOS>BOND
     1    16    17    1
     2    17    20    1
     3    20    21   ar
     4    21    22   ar
     5    22    23   ar
     6    23    24   ar
     7    24    25   ar
     8    17     1    1
     9     1     2    1
    10     1     4    1
    11     4     5   ar
    12     5     6   ar
    13     6     7   ar
    14     7     8   ar
    15     8     9   ar
    16     1    10    1
    17    10    11   ar
    18    11    12   ar
    19    12    13   ar
    20    13    14   ar
    21    14    15   ar
    22    25    20   ar
    23     9     4   ar
    24    15    10   ar
    25    16    18    1
    26    16    19    1
    27     2     3    1
@<TRIPOS>MOLECULE
*****
 25 27 0 0 0
SMALL
GASTEIGER

@<TRIPOS>ATOM
      1 C         141.7016  140.1215  165.5112 C.3     1  UNL1        0.1452
      2 O         142.4078  139.5803  166.7188 O.3     1  UNL1       -0.3768
      3 H         143.3490  139.8104  166.6731 H       1  UNL1        0.2112
      4 C         142.9956  140.6903  165.0092 C.ar    1  UNL1        0.0264
      5 C         143.3021  142.1453  165.2069 C.ar    1  UNL1        0.0015
      6 C         144.5962  142.7141  164.7050 C.ar    1  UNL1        0.0204
      7 C         145.5837  141.8279  164.0054 C.ar    1  UNL1        0.0989
      8 N         145.2772  140.3729  163.8077 N.ar    1  UNL1       -0.2426
      9 C         143.9832  139.8041  164.3096 C.ar    1  UNL1        0.0972
     10 C         140.4076  139.5527  166.0131 C.ar    1  UNL1        0.0264
     11 C         139.6744  138.5263  165.2013 C.ar    1  UNL1        0.0015
     12 C         138.3804  137.9576  165.7033 C.ar    1  UNL1        0.0204
     13 C         137.8195  138.4152  167.0170 C.ar    1  UNL1        0.0989
     14 N         138.5526  139.4416  167.8288 N.ar    1  UNL1       -0.2426
     15 C         139.8466  140.0103  167.3269 C.ar    1  UNL1        0.0972
     16 N         141.2966  140.1031  162.9449 N.3     1  UNL1       -0.3164
     17 C         140.9953  140.6627  164.3036 C.3     1  UNL1        0.1066
     18 H         140.7305  140.5840  162.2459 H       1  UNL1        0.1192
     19 H         141.0790  139.1066  162.9317 H       1  UNL1        0.1192
     20 C         139.9877  141.7636  164.4547 C.ar    1  UNL1       -0.0053
     21 C         140.3195  142.9772  165.2713 C.ar    1  UNL1       -0.0029
     22 C         139.3119  144.0780  165.4224 C.ar    1  UNL1       -0.0003
     23 C         137.9724  143.9653  164.7568 C.ar    1  UNL1       -0.0000
     24 C         137.6405  142.7516  163.9401 C.ar    1  UNL1       -0.0003
     25 C         138.6481  141.6508  163.7890 C.ar    1  UNL1       -0.0029
@<TRIPOS>BOND
     1    16    17    1
     2    17    20    1
     3    20    21   ar
     4    21    22   ar
     5    22    23   ar
     6    23    24   ar
     7    24    25   ar
     8    17     1    1
     9     1     2    1
    10     1     4    1
    11     4     5   ar
    12     5     6   ar
    13     6     7   ar
    14     7     8   ar
    15     8     9   ar
    16     1    10    1
    17    10    11   ar
    18    11    12   ar
    19    12    13   ar
    20    13    14   ar
    21    14    15   ar
    22    25    20   ar
    23     9     4   ar
    24    15    10   ar
    25    16    18    1
    26    16    19    1
    27     2     3    1
@<TRIPOS>MOLECULE
*****
 25 27 0 0 0
SMALL
GASTEIGER

@<TRIPOS>ATOM
      1 C         141.7367  140.1237  165.3823 C.3     1  UNL1        0.1452
      2 O         142.4342  139.5474  166.5787 O.3     1  UNL1       -0.3768
      3 H         141.7951  139.0604  167.1221 H       1  UNL1        0.2112
      4 C         140.4418  139.5287  165.8505 C.ar    1  UNL1        0.0264
      5 C         139.7825  140.0502  167.0928 C.ar    1  UNL1        0.0015
      6 C         138.4876  139.4551  167.5609 C.ar    1  UNL1        0.0204
      7 C         137.8520  138.3386  166.7868 C.ar    1  UNL1        0.0989
      8 N         138.5113  137.8170  165.5445 N.ar    1  UNL1       -0.2426
      9 C         139.8062  138.4121  165.0763 C.ar    1  UNL1        0.0972
     10 C         143.0315  140.7187  164.9141 C.ar    1  UNL1        0.0264
     11 C         143.3358  142.1620  165.1870 C.ar    1  UNL1        0.0015
     12 C         144.6307  142.7570  164.7188 C.ar    1  UNL1        0.0204
     13 C         145.6213  141.9088  163.9777 C.ar    1  UNL1        0.0989
     14 N         145.3170  140.4655  163.7048 N.ar    1  UNL1       -0.2426
     15 C         144.0222  139.8705  164.1730 C.ar    1  UNL1        0.0972
     16 N         141.3737  140.2024  162.8109 N.3     1  UNL1       -0.3164
     17 C         141.0393  140.7000  164.1859 C.3     1  UNL1        0.1066
     18 H         140.8094  140.7005  162.1225 H       1  UNL1        0.1192
     19 H         141.1764  139.2033  162.7535 H       1  UNL1        0.1192
     20 C         140.0074  141.7740  164.3644 C.ar    1  UNL1       -0.0053
     21 C         140.3354  143.0051  165.1560 C.ar    1  UNL1       -0.0029
     22 C         139.3035  144.0791  165.3345 C.ar    1  UNL1       -0.0003
     23 C         137.9436  143.9219  164.7215 C.ar    1  UNL1       -0.0000
     24 C         137.6155  142.6907  163.9299 C.ar    1  UNL1       -0.0003
     25 C         138.6474  141.6167  163.7513 C.ar    1  UNL1       -0.0029
@<TRIPOS>BOND
     1    16    17    1
     2    17    20    1
     3    20    21   ar
     4    21    22   ar
     5    22    23   ar
     6    23    24   ar
     7    24    25   ar
     8    17     1    1
     9     1     2    1
    10     1     4    1
    11     4     5   ar
    12     5     6   ar
    13     6     7   ar
    14     7     8   ar
    15     8     9   ar
    16     1    10    1
    17    10    11   ar
    18    11    12   ar
    19    12    13   ar
    20    13    14   ar
    21    14    15   ar
    22    25    20   ar
    23     9     4   ar
    24    15    10   ar
    25    16    18    1
    26    16    19    1
    27     2     3    1
@<TRIPOS>MOLECULE
*****
 25 27 0 0 0
SMALL
GASTEIGER

@<TRIPOS>ATOM
      1 C         142.1859  141.6638  166.5795 C.3     1  UNL1        0.1452
      2 O         143.2416  142.0668  167.5661 O.3     1  UNL1       -0.3768
      3 H         142.8791  142.0201  168.4646 H       1  UNL1        0.2112
      4 C         141.2182  141.4447  167.7044 C.ar    1  UNL1        0.0264
      5 C         140.9136  142.5602  168.6598 C.ar    1  UNL1        0.0015
      6 C         139.9458  142.3411  169.7847 C.ar    1  UNL1        0.0204
      7 C         139.2827  141.0064  169.9542 C.ar    1  UNL1        0.0989
      8 N         139.5873  139.8908  168.9989 N.ar    1  UNL1       -0.2426
      9 C         140.5550  140.1099  167.8740 C.ar    1  UNL1        0.0972
     10 C         143.1537  141.8829  165.4546 C.ar    1  UNL1        0.0264
     11 C         143.3041  143.2473  164.8497 C.ar    1  UNL1        0.0015
     12 C         144.2719  143.4663  163.7248 C.ar    1  UNL1        0.0204
     13 C         145.0892  142.3211  163.2048 C.ar    1  UNL1        0.0989
     14 N         144.9388  140.9567  163.8097 N.ar    1  UNL1       -0.2426
     15 C         143.9710  140.7376  164.9346 C.ar    1  UNL1        0.0972
     16 N         141.1898  139.9115  164.9401 N.3     1  UNL1       -0.3164
     17 C         141.1304  141.2608  165.5929 C.3     1  UNL1        0.1066
     18 H         140.3999  139.8068  164.3034 H       1  UNL1        0.1192
     19 H         141.1485  139.1856  165.6555 H       1  UNL1        0.1192
     20 C         140.0154  142.2070  165.2591 C.ar    1  UNL1       -0.0053
     21 C         140.2130  143.6852  165.4189 C.ar    1  UNL1       -0.0029
     22 C         139.0980  144.6314  165.0851 C.ar    1  UNL1       -0.0003
     23 C         137.7853  144.0993  164.5915 C.ar    1  UNL1       -0.0000
     24 C         137.5876  142.6210  164.4316 C.ar    1  UNL1       -0.0003
     25 C         138.7026  141.6748  164.7655 C.ar    1  UNL1       -0.0029
@<TRIPOS>BOND
     1    16    17    1
     2    17    20    1
     3    20    21   ar
     4    21    22   ar
     5    22    23   ar
     6    23    24   ar
     7    24    25   ar
     8    17     1    1
     9     1     2    1
    10     1     4    1
    11     4     5   ar
    12     5     6   ar
    13     6     7   ar
    14     7     8   ar
    15     8     9   ar
    16     1    10    1
    17    10    11   ar
    18    11    12   ar
    19    12    13   ar
    20    13    14   ar
    21    14    15   ar
    22    25    20   ar
    23     9     4   ar
    24    15    10   ar
    25    16    18    1
    26    16    19    1
    27     2     3    1
