@<TRIPOS>MOLECULE
*****
 33 36 0 0 0
SMALL
GASTEIGER

@<TRIPOS>ATOM
      1 N         138.1447  140.0014  162.3516 N.3     1  UNL1       -0.2710
      2 C         137.6971  140.7177  163.5912 C.3     1  UNL1        0.0735
      3 C         137.5577  142.2112  163.5855 C.3     1  UNL1        0.0331
      4 C         137.8660  142.9885  162.3402 C.3     1  UNL1        0.0570
      5 C         138.3137  142.2722  161.1006 C.3     1  UNL1        0.0331
      6 C         138.4530  140.7787  161.1063 C.3     1  UNL1        0.0735
      7 N         137.7266  144.4819  162.3345 N.3     1  UNL1       -0.2947
      8 H         136.9193  144.7045  162.9168 H       1  UNL1        0.1235
      9 C         138.8574  145.3426  162.8146 C.3     1  UNL1        0.0972
     10 C         140.2725  144.8620  162.6864 C.ar    1  UNL1        0.0135
     11 C         140.9848  144.9696  161.3707 C.ar    1  UNL1        0.0955
     12 N         142.4000  144.4890  161.2425 N.ar    1  UNL1       -0.2477
     13 C         143.1028  143.9008  162.4299 C.ar    1  UNL1        0.0689
     14 C         144.5179  143.4202  162.3017 C.3     1  UNL1        0.0528
     15 C         142.3905  143.7932  163.7456 C.ar    1  UNL1        0.0817
     16 C         140.9754  144.2737  163.8739 C.ar    1  UNL1        0.0101
     17 C         143.0933  143.2050  164.9330 C.1     1  UNL1        0.1016
     18 N         143.7961  142.6167  166.1206 N.1     1  UNL1       -0.1908
     19 C         138.2841  138.5079  162.3574 C.3     1  UNL1        0.0970
     20 C         138.8632  137.8133  163.5542 C.3     1  UNL1        0.1264
     21 C         140.5490  140.1659  168.1229 C.ar    1  UNL1        0.2250
     22 C         139.2043  139.7591  167.5974 C.ar    1  UNL1        0.0592
     23 C         139.0906  139.1105  166.2496 C.ar    1  UNL1        0.0236
     24 C         140.3216  138.8687  165.4274 C.ar    1  UNL1        0.0804
     25 C         141.6663  139.2755  165.9529 C.ar    1  UNL1        0.1003
     26 C         142.8974  139.0338  165.1306 C.ar    1  UNL1        0.0256
     27 C         142.7837  138.3852  163.7829 C.ar    1  UNL1        0.0623
     28 C         141.4389  137.9784  163.2574 C.ar    1  UNL1        0.2611
     29 O         141.3252  137.3298  161.9097 O.2     1  UNL1       -0.2670
     30 N         140.2079  138.2201  164.0796 N.ar    1  UNL1       -0.2927
     31 N         141.7800  139.9241  167.3006 N.ar    1  UNL1       -0.2102
     32 C         140.2653  140.0576  170.7031 C.3     1  UNL1        0.2542
     33 O         140.6627  140.8145  169.4706 O.3     1  UNL1       -0.4561
@<TRIPOS>BOND
     1    32    33    1
     2    33    21    1
     3    21    22   ar
     4    22    23   ar
     5    23    24   ar
     6    24    25   ar
     7    25    26   ar
     8    26    27   ar
     9    27    28   ar
    10    28    29    2
    11    28    30   ar
    12    30    20    1
    13    20    19    1
    14    19     1    1
    15     1     2    1
    16     2     3    1
    17     3     4    1
    18     4     7    1
    19     7     9    1
    20     9    10    1
    21    10    11   ar
    22    11    12   ar
    23    12    13   ar
    24    13    14    1
    25    13    15   ar
    26    15    17    1
    27    17    18    3
    28    15    16   ar
    29     4     5    1
    30     5     6    1
    31    25    31   ar
    32    31    21   ar
    33    30    24   ar
    34     6     1    1
    35    16    10   ar
    36     7     8    1
@<TRIPOS>MOLECULE
*****
 33 36 0 0 0
SMALL
GASTEIGER

@<TRIPOS>ATOM
      1 N         142.7319  144.2434  163.4732 N.3     1  UNL1       -0.2710
      2 C         141.4954  144.4178  164.3043 C.3     1  UNL1        0.0735
      3 C         140.1442  144.1811  163.6975 C.3     1  UNL1        0.0331
      4 C         140.0295  143.7700  162.2594 C.3     1  UNL1        0.0570
      5 C         141.2660  143.5956  161.4283 C.3     1  UNL1        0.0331
      6 C         142.6172  143.8323  162.0352 C.3     1  UNL1        0.0735
      7 N         138.6783  143.5334  161.6526 N.3     1  UNL1       -0.2947
      8 H         138.8343  143.2762  160.6779 H       1  UNL1        0.1235
      9 C         137.7666  142.4939  162.2341 C.3     1  UNL1        0.0972
     10 C         138.3367  141.2236  162.7920 C.ar    1  UNL1        0.0135
     11 C         139.3060  140.4165  161.9802 C.ar    1  UNL1        0.0955
     12 N         139.8762  139.1462  162.5382 N.ar    1  UNL1       -0.2477
     13 C         139.4771  138.6830  163.9079 C.ar    1  UNL1        0.0689
     14 C         140.0472  137.4128  164.4658 C.3     1  UNL1        0.0528
     15 C         138.5078  139.4902  164.7197 C.ar    1  UNL1        0.0817
     16 C         137.9377  140.7605  164.1618 C.ar    1  UNL1        0.0101
     17 C         138.1087  139.0271  166.0894 C.1     1  UNL1        0.1016
     18 N         137.7096  138.5640  167.4593 N.1     1  UNL1       -0.1908
     19 C         144.0831  144.4801  164.0802 C.3     1  UNL1        0.0970
     20 C         144.6990  143.4398  164.9682 C.3     1  UNL1        0.1264
     21 C         141.4123  140.3681  167.9702 C.ar    1  UNL1        0.2250
     22 C         141.8698  141.7940  168.0564 C.ar    1  UNL1        0.0592
     23 C         142.8129  142.3426  167.0270 C.ar    1  UNL1        0.0236
     24 C         143.2984  141.4653  165.9114 C.ar    1  UNL1        0.0804
     25 C         142.8410  140.0394  165.8253 C.ar    1  UNL1        0.1003
     26 C         143.3265  139.1620  164.7097 C.ar    1  UNL1        0.0256
     27 C         144.2696  139.7106  163.6803 C.ar    1  UNL1        0.0623
     28 C         144.7271  141.1366  163.7665 C.ar    1  UNL1        0.2611
     29 O         145.6702  141.6852  162.7371 O.2     1  UNL1       -0.2670
     30 N         144.2415  142.0139  164.8820 N.ar    1  UNL1       -0.2927
     31 N         141.8979  139.4908  166.8547 N.ar    1  UNL1       -0.2102
     32 C         139.4664  140.7223  169.6549 C.3     1  UNL1        0.2542
     33 O         140.4692  139.8195  168.9996 O.3     1  UNL1       -0.4561
@<TRIPOS>BOND
     1    32    33    1
     2    33    21    1
     3    21    22   ar
     4    22    23   ar
     5    23    24   ar
     6    24    25   ar
     7    25    26   ar
     8    26    27   ar
     9    27    28   ar
    10    28    29    2
    11    28    30   ar
    12    30    20    1
    13    20    19    1
    14    19     1    1
    15     1     2    1
    16     2     3    1
    17     3     4    1
    18     4     7    1
    19     7     9    1
    20     9    10    1
    21    10    11   ar
    22    11    12   ar
    23    12    13   ar
    24    13    14    1
    25    13    15   ar
    26    15    17    1
    27    17    18    3
    28    15    16   ar
    29     4     5    1
    30     5     6    1
    31    25    31   ar
    32    31    21   ar
    33    30    24   ar
    34     6     1    1
    35    16    10   ar
    36     7     8    1
@<TRIPOS>MOLECULE
*****
 33 36 0 0 0
SMALL
GASTEIGER

@<TRIPOS>ATOM
      1 N         144.4833  140.2787  163.4620 N.3     1  UNL1       -0.2710
      2 C         144.0041  140.1378  162.0476 C.3     1  UNL1        0.0735
      3 C         142.9522  139.1233  161.7097 C.3     1  UNL1        0.0331
      4 C         142.3794  138.2496  162.7861 C.3     1  UNL1        0.0570
      5 C         142.8586  138.3905  164.2005 C.3     1  UNL1        0.0331
      6 C         143.9106  139.4051  164.5385 C.3     1  UNL1        0.0735
      7 N         141.3275  137.2351  162.4482 N.3     1  UNL1       -0.2947
      8 H         141.7175  136.3201  162.6742 H       1  UNL1        0.1235
      9 C         139.9800  137.3052  163.1032 C.3     1  UNL1        0.0972
     10 C         139.3687  138.6377  163.4205 C.ar    1  UNL1        0.0135
     11 C         138.9244  138.9450  164.8198 C.ar    1  UNL1        0.0955
     12 N         138.3130  140.2776  165.1370 N.ar    1  UNL1       -0.2477
     13 C         138.1461  141.3028  164.0549 C.ar    1  UNL1        0.0689
     14 C         137.5348  142.6354  164.3722 C.3     1  UNL1        0.0528
     15 C         138.5904  140.9955  162.6556 C.ar    1  UNL1        0.0817
     16 C         139.2016  139.6630  162.3383 C.ar    1  UNL1        0.0101
     17 C         138.4234  142.0208  161.5735 C.1     1  UNL1        0.1016
     18 N         138.2564  143.0461  160.4913 N.1     1  UNL1       -0.1908
     19 C         145.5352  141.2932  163.8000 C.3     1  UNL1        0.0970
     20 C         145.1351  142.6664  164.2521 C.3     1  UNL1        0.1264
     21 C         140.9950  142.4301  167.7240 C.ar    1  UNL1        0.2250
     22 C         142.4329  142.0081  167.7898 C.ar    1  UNL1        0.0592
     23 C         143.3336  142.2275  166.6106 C.ar    1  UNL1        0.0236
     24 C         142.7965  142.8689  165.3656 C.ar    1  UNL1        0.0804
     25 C         141.3586  143.2909  165.2998 C.ar    1  UNL1        0.1003
     26 C         140.8214  143.9323  164.0548 C.ar    1  UNL1        0.0256
     27 C         141.7221  144.1517  162.8755 C.ar    1  UNL1        0.0623
     28 C         143.1600  143.7297  162.9414 C.ar    1  UNL1        0.2611
     29 O         144.0608  143.9491  161.7622 O.2     1  UNL1       -0.2670
     30 N         143.6972  143.0883  164.1864 N.ar    1  UNL1       -0.2927
     31 N         140.4579  143.0715  166.4790 N.ar    1  UNL1       -0.2102
     32 C         139.6864  140.8191  169.2868 C.3     1  UNL1        0.2542
     33 O         140.0943  142.2107  168.9032 O.3     1  UNL1       -0.4561
@<TRIPOS>BOND
     1    32    33    1
     2    33    21    1
     3    21    22   ar
     4    22    23   ar
     5    23    24   ar
     6    24    25   ar
     7    25    26   ar
     8    26    27   ar
     9    27    28   ar
    10    28    29    2
    11    28    30   ar
    12    30    20    1
    13    20    19    1
    14    19     1    1
    15     1     2    1
    16     2     3    1
    17     3     4    1
    18     4     7    1
    19     7     9    1
    20     9    10    1
    21    10    11   ar
    22    11    12   ar
    23    12    13   ar
    24    13    14    1
    25    13    15   ar
    26    15    17    1
    27    17    18    3
    28    15    16   ar
    29     4     5    1
    30     5     6    1
    31    25    31   ar
    32    31    21   ar
    33    30    24   ar
    34     6     1    1
    35    16    10   ar
    36     7     8    1
@<TRIPOS>MOLECULE
*****
 33 36 0 0 0
SMALL
GASTEIGER

@<TRIPOS>ATOM
      1 N         137.8609  142.8930  162.8174 N.3     1  UNL1       -0.2710
      2 C         137.6578  141.7597  163.7789 C.3     1  UNL1        0.0735
      3 C         137.7753  140.3421  163.3028 C.3     1  UNL1        0.0331
      4 C         138.0957  140.0578  161.8652 C.3     1  UNL1        0.0570
      5 C         138.2988  141.1911  160.9038 C.3     1  UNL1        0.0331
      6 C         138.1814  142.6088  161.3799 C.3     1  UNL1        0.0735
      7 N         138.2132  138.6402  161.3891 N.3     1  UNL1       -0.2947
      8 H         137.7421  138.5931  160.4857 H       1  UNL1        0.1235
      9 C         139.5667  138.0208  161.2045 C.3     1  UNL1        0.0972
     10 C         140.6190  138.1893  162.2601 C.ar    1  UNL1        0.0135
     11 C         140.4956  137.4604  163.5653 C.ar    1  UNL1        0.0955
     12 N         141.5480  137.6290  164.6209 N.ar    1  UNL1       -0.2477
     13 C         142.7236  138.5265  164.3713 C.ar    1  UNL1        0.0689
     14 C         143.7759  138.6950  165.4268 C.3     1  UNL1        0.0528
     15 C         142.8470  139.2554  163.0661 C.ar    1  UNL1        0.0817
     16 C         141.7947  139.0868  162.0105 C.ar    1  UNL1        0.0101
     17 C         144.0227  140.1529  162.8165 C.1     1  UNL1        0.1016
     18 N         145.1984  141.0503  162.5669 N.1     1  UNL1       -0.1908
     19 C         137.7434  144.3106  163.2936 C.3     1  UNL1        0.0970
     20 C         138.7798  144.8801  164.2164 C.3     1  UNL1        0.1264
     21 C         142.1946  141.7535  167.0117 C.ar    1  UNL1        0.2250
     22 C         140.7521  142.1285  167.1810 C.ar    1  UNL1        0.0592
     23 C         140.0947  143.0457  166.1928 C.ar    1  UNL1        0.0236
     24 C         140.8796  143.5879  165.0353 C.ar    1  UNL1        0.0804
     25 C         142.3221  143.2128  164.8660 C.ar    1  UNL1        0.1003
     26 C         143.1071  143.7550  163.7085 C.ar    1  UNL1        0.0256
     27 C         142.4497  144.6722  162.7203 C.ar    1  UNL1        0.0623
     28 C         141.0071  145.0472  162.8896 C.ar    1  UNL1        0.2611
     29 O         140.3497  145.9644  161.9014 O.2     1  UNL1       -0.2670
     30 N         140.2222  144.5050  164.0471 N.ar    1  UNL1       -0.2927
     31 N         142.9795  142.2956  165.8542 N.ar    1  UNL1       -0.2102
     32 C         142.0460  139.7771  168.6915 C.3     1  UNL1        0.2542
     33 O         142.8520  140.8363  167.9999 O.3     1  UNL1       -0.4561
@<TRIPOS>BOND
     1    32    33    1
     2    33    21    1
     3    21    22   ar
     4    22    23   ar
     5    23    24   ar
     6    24    25   ar
     7    25    26   ar
     8    26    27   ar
     9    27    28   ar
    10    28    29    2
    11    28    30   ar
    12    30    20    1
    13    20    19    1
    14    19     1    1
    15     1     2    1
    16     2     3    1
    17     3     4    1
    18     4     7    1
    19     7     9    1
    20     9    10    1
    21    10    11   ar
    22    11    12   ar
    23    12    13   ar
    24    13    14    1
    25    13    15   ar
    26    15    17    1
    27    17    18    3
    28    15    16   ar
    29     4     5    1
    30     5     6    1
    31    25    31   ar
    32    31    21   ar
    33    30    24   ar
    34     6     1    1
    35    16    10   ar
    36     7     8    1
@<TRIPOS>MOLECULE
*****
 33 36 0 0 0
SMALL
GASTEIGER

@<TRIPOS>ATOM
      1 N         142.7828  141.0382  166.7597 N.3     1  UNL1       -0.2710
      2 C         143.3624  141.8962  165.6743 C.3     1  UNL1        0.0735
      3 C         144.0181  141.2597  164.4849 C.3     1  UNL1        0.0331
      4 C         144.0942  139.7652  164.3807 C.3     1  UNL1        0.0570
      5 C         143.5146  138.9073  165.4660 C.3     1  UNL1        0.0331
      6 C         142.8588  139.5438  166.6556 C.3     1  UNL1        0.0735
      7 N         144.7499  139.1287  163.1912 N.3     1  UNL1       -0.2947
      8 H         144.9336  138.1570  163.4411 H       1  UNL1        0.1235
      9 C         144.0451  139.1094  161.8672 C.3     1  UNL1        0.0972
     10 C         142.5620  138.8923  161.8102 C.ar    1  UNL1        0.0135
     11 C         141.9640  137.6436  162.3874 C.ar    1  UNL1        0.0955
     12 N         140.4809  137.4265  162.3303 N.ar    1  UNL1       -0.2477
     13 C         139.5958  138.4581  161.6960 C.ar    1  UNL1        0.0689
     14 C         138.1127  138.2409  161.6389 C.3     1  UNL1        0.0528
     15 C         140.1937  139.7067  161.1187 C.ar    1  UNL1        0.0817
     16 C         141.6768  139.9239  161.1758 C.ar    1  UNL1        0.0101
     17 C         139.3086  140.7383  160.4844 C.1     1  UNL1        0.1016
     18 N         138.4235  141.7699  159.8500 N.1     1  UNL1       -0.1908
     19 C         142.1271  141.6748  167.9492 C.3     1  UNL1        0.0970
     20 C         140.6798  142.0643  167.8888 C.3     1  UNL1        0.1264
     21 C         139.0933  144.1370  163.1520 C.ar    1  UNL1        0.2250
     22 C         139.9590  144.6391  164.2693 C.ar    1  UNL1        0.0592
     23 C         140.1993  143.7808  165.4758 C.ar    1  UNL1        0.0236
     24 C         139.5738  142.4204  165.5650 C.ar    1  UNL1        0.0804
     25 C         138.7080  141.9183  164.4478 C.ar    1  UNL1        0.1003
     26 C         138.0825  140.5579  164.5369 C.ar    1  UNL1        0.0256
     27 C         138.3227  139.6996  165.7434 C.ar    1  UNL1        0.0623
     28 C         139.1885  140.2018  166.8607 C.ar    1  UNL1        0.2611
     29 O         139.4288  139.3435  168.0672 O.2     1  UNL1       -0.2670
     30 N         139.8140  141.5622  166.7715 N.ar    1  UNL1       -0.2927
     31 N         138.4678  142.7766  163.2413 N.ar    1  UNL1       -0.2102
     32 C         139.6764  146.2300  161.7275 C.3     1  UNL1        0.2542
     33 O         138.8530  144.9953  161.9455 O.3     1  UNL1       -0.4561
@<TRIPOS>BOND
     1    32    33    1
     2    33    21    1
     3    21    22   ar
     4    22    23   ar
     5    23    24   ar
     6    24    25   ar
     7    25    26   ar
     8    26    27   ar
     9    27    28   ar
    10    28    29    2
    11    28    30   ar
    12    30    20    1
    13    20    19    1
    14    19     1    1
    15     1     2    1
    16     2     3    1
    17     3     4    1
    18     4     7    1
    19     7     9    1
    20     9    10    1
    21    10    11   ar
    22    11    12   ar
    23    12    13   ar
    24    13    14    1
    25    13    15   ar
    26    15    17    1
    27    17    18    3
    28    15    16   ar
    29     4     5    1
    30     5     6    1
    31    25    31   ar
    32    31    21   ar
    33    30    24   ar
    34     6     1    1
    35    16    10   ar
    36     7     8    1
@<TRIPOS>MOLECULE
*****
 33 36 0 0 0
SMALL
GASTEIGER

@<TRIPOS>ATOM
      1 N         138.8769  139.4950  161.5526 N.3     1  UNL1       -0.2710
      2 C         139.1782  138.3567  162.4819 C.3     1  UNL1        0.0735
      3 C         140.5107  137.6707  162.4203 C.3     1  UNL1        0.0331
      4 C         141.5421  138.1231  161.4295 C.3     1  UNL1        0.0570
      5 C         141.2408  139.2614  160.5002 C.3     1  UNL1        0.0331
      6 C         139.9082  139.9474  160.5618 C.3     1  UNL1        0.0735
      7 N         142.8746  137.4372  161.3679 N.3     1  UNL1       -0.2947
      8 H         143.0227  137.1682  160.3952 H       1  UNL1        0.1235
      9 C         144.1118  138.1608  161.8102 C.3     1  UNL1        0.0972
     10 C         144.0140  139.2648  162.8210 C.ar    1  UNL1        0.0135
     11 C         143.7932  138.9391  164.2684 C.ar    1  UNL1        0.0955
     12 N         143.6954  140.0431  165.2792 N.ar    1  UNL1       -0.2477
     13 C         143.8185  141.4728  164.8425 C.ar    1  UNL1        0.0689
     14 C         143.7207  142.5768  165.8532 C.3     1  UNL1        0.0528
     15 C         144.0393  141.7986  163.3950 C.ar    1  UNL1        0.0817
     16 C         144.1371  140.6946  162.3843 C.ar    1  UNL1        0.0101
     17 C         144.1624  143.2282  162.9583 C.1     1  UNL1        0.1016
     18 N         144.2855  144.6580  162.5216 N.1     1  UNL1       -0.1908
     19 C         137.5443  140.1809  161.6142 C.3     1  UNL1        0.0970
     20 C         137.1529  140.9504  162.8409 C.3     1  UNL1        0.1264
     21 C         139.9076  140.3835  167.4604 C.ar    1  UNL1        0.2250
     22 C         138.8910  139.5433  166.7459 C.ar    1  UNL1        0.0592
     23 C         138.3116  140.0123  165.4442 C.ar    1  UNL1        0.0236
     24 C         138.7489  141.3215  164.8570 C.ar    1  UNL1        0.0804
     25 C         139.7655  142.1617  165.5716 C.ar    1  UNL1        0.1003
     26 C         140.2028  143.4710  164.9844 C.ar    1  UNL1        0.0256
     27 C         139.6234  143.9400  163.6828 C.ar    1  UNL1        0.0623
     28 C         138.6067  143.0997  162.9682 C.ar    1  UNL1        0.2611
     29 O         138.0273  143.5688  161.6666 O.2     1  UNL1       -0.2670
     30 N         138.1695  141.7906  163.5554 N.ar    1  UNL1       -0.2927
     31 N         140.3449  141.6927  166.8732 N.ar    1  UNL1       -0.2102
     32 C         141.9650  139.6922  168.8883 C.3     1  UNL1        0.2542
     33 O         140.4870  139.9144  168.7620 O.3     1  UNL1       -0.4561
@<TRIPOS>BOND
     1    32    33    1
     2    33    21    1
     3    21    22   ar
     4    22    23   ar
     5    23    24   ar
     6    24    25   ar
     7    25    26   ar
     8    26    27   ar
     9    27    28   ar
    10    28    29    2
    11    28    30   ar
    12    30    20    1
    13    20    19    1
    14    19     1    1
    15     1     2    1
    16     2     3    1
    17     3     4    1
    18     4     7    1
    19     7     9    1
    20     9    10    1
    21    10    11   ar
    22    11    12   ar
    23    12    13   ar
    24    13    14    1
    25    13    15   ar
    26    15    17    1
    27    17    18    3
    28    15    16   ar
    29     4     5    1
    30     5     6    1
    31    25    31   ar
    32    31    21   ar
    33    30    24   ar
    34     6     1    1
    35    16    10   ar
    36     7     8    1
@<TRIPOS>MOLECULE
*****
 33 36 0 0 0
SMALL
GASTEIGER

@<TRIPOS>ATOM
      1 N         141.1536  144.8103  162.5802 N.3     1  UNL1       -0.2710
      2 C         141.6303  144.0054  161.4076 C.3     1  UNL1        0.0735
      3 C         142.9835  143.3593  161.4419 C.3     1  UNL1        0.0331
      4 C         143.8602  143.5181  162.6487 C.3     1  UNL1        0.0570
      5 C         143.3835  144.3230  163.8212 C.3     1  UNL1        0.0331
      6 C         142.0301  144.9691  163.7870 C.3     1  UNL1        0.0735
      7 N         145.2134  142.8720  162.6829 N.3     1  UNL1       -0.2947
      8 H         145.6153  143.0786  163.5974 H       1  UNL1        0.1235
      9 C         145.3433  141.3919  162.4771 C.3     1  UNL1        0.0972
     10 C         144.3160  140.4619  163.0513 C.ar    1  UNL1        0.0135
     11 C         143.3471  139.7627  162.1445 C.ar    1  UNL1        0.0955
     12 N         142.3198  138.8326  162.7187 N.ar    1  UNL1       -0.2477
     13 C         142.2615  138.6017  164.1996 C.ar    1  UNL1        0.0689
     14 C         141.2342  137.6717  164.7737 C.3     1  UNL1        0.0528
     15 C         143.2304  139.3009  165.1064 C.ar    1  UNL1        0.0817
     16 C         144.2577  140.2309  164.5323 C.ar    1  UNL1        0.0101
     17 C         143.1721  139.0700  166.5874 C.1     1  UNL1        0.1016
     18 N         143.1137  138.8391  168.0684 N.1     1  UNL1       -0.1908
     19 C         139.8002  145.4564  162.5459 C.3     1  UNL1        0.0970
     20 C         138.6298  144.7805  163.1964 C.3     1  UNL1        0.1264
     21 C         140.1240  141.5238  167.2475 C.ar    1  UNL1        0.2250
     22 C         140.1198  143.0115  167.0566 C.ar    1  UNL1        0.0592
     23 C         139.6231  143.6012  165.7699 C.ar    1  UNL1        0.0236
     24 C         139.1306  142.7031  164.6741 C.ar    1  UNL1        0.0804
     25 C         139.1347  141.2153  164.8651 C.ar    1  UNL1        0.1003
     26 C         138.6421  140.3171  163.7693 C.ar    1  UNL1        0.0256
     27 C         138.1454  140.9068  162.4826 C.ar    1  UNL1        0.0623
     28 C         138.1413  142.3946  162.2916 C.ar    1  UNL1        0.2611
     29 O         137.6447  142.9842  161.0049 O.2     1  UNL1       -0.2670
     30 N         138.6339  143.2927  163.3874 N.ar    1  UNL1       -0.2927
     31 N         139.6314  140.6257  166.1518 N.ar    1  UNL1       -0.2102
     32 C         139.6487  140.3500  169.5161 C.3     1  UNL1        0.2542
     33 O         140.6206  140.9341  168.5342 O.3     1  UNL1       -0.4561
@<TRIPOS>BOND
     1    32    33    1
     2    33    21    1
     3    21    22   ar
     4    22    23   ar
     5    23    24   ar
     6    24    25   ar
     7    25    26   ar
     8    26    27   ar
     9    27    28   ar
    10    28    29    2
    11    28    30   ar
    12    30    20    1
    13    20    19    1
    14    19     1    1
    15     1     2    1
    16     2     3    1
    17     3     4    1
    18     4     7    1
    19     7     9    1
    20     9    10    1
    21    10    11   ar
    22    11    12   ar
    23    12    13   ar
    24    13    14    1
    25    13    15   ar
    26    15    17    1
    27    17    18    3
    28    15    16   ar
    29     4     5    1
    30     5     6    1
    31    25    31   ar
    32    31    21   ar
    33    30    24   ar
    34     6     1    1
    35    16    10   ar
    36     7     8    1
@<TRIPOS>MOLECULE
*****
 33 36 0 0 0
SMALL
GASTEIGER

@<TRIPOS>ATOM
      1 N         140.5425  144.7777  162.8986 N.3     1  UNL1       -0.2710
      2 C         141.6723  145.1490  163.8127 C.3     1  UNL1        0.0735
      3 C         143.0794  144.7687  163.4588 C.3     1  UNL1        0.0331
      4 C         143.3568  144.0170  162.1907 C.3     1  UNL1        0.0570
      5 C         142.2270  143.6456  161.2765 C.3     1  UNL1        0.0331
      6 C         140.8198  144.0260  161.6305 C.3     1  UNL1        0.0735
      7 N         144.7639  143.6367  161.8368 N.3     1  UNL1       -0.2947
      8 H         145.3654  144.0239  162.5639 H       1  UNL1        0.1235
      9 C         145.1361  142.1909  161.6914 C.3     1  UNL1        0.0972
     10 C         144.5741  141.1728  162.6389 C.ar    1  UNL1        0.0135
     11 C         145.0884  141.0932  164.0457 C.ar    1  UNL1        0.0955
     12 N         144.5263  140.0751  164.9932 N.ar    1  UNL1       -0.2477
     13 C         143.4501  139.1367  164.5339 C.ar    1  UNL1        0.0689
     14 C         142.8881  138.1187  165.4814 C.3     1  UNL1        0.0528
     15 C         142.9358  139.2164  163.1271 C.ar    1  UNL1        0.0817
     16 C         143.4978  140.2344  162.1796 C.ar    1  UNL1        0.0101
     17 C         141.8596  138.2780  162.6677 C.1     1  UNL1        0.1016
     18 N         140.7832  137.3396  162.2083 N.1     1  UNL1       -0.1908
     19 C         139.1353  145.1580  163.2526 C.3     1  UNL1        0.0970
     20 C         138.3421  144.3032  164.1959 C.3     1  UNL1        0.1264
     21 C         140.9631  141.3160  167.8643 C.ar    1  UNL1        0.2250
     22 C         140.6575  142.7793  167.7409 C.ar    1  UNL1        0.0592
     23 C         139.8857  143.2872  166.5592 C.ar    1  UNL1        0.0236
     24 C         139.4195  142.3319  165.5010 C.ar    1  UNL1        0.0804
     25 C         139.7250  140.8686  165.6244 C.ar    1  UNL1        0.1003
     26 C         139.2588  139.9131  164.5662 C.ar    1  UNL1        0.0256
     27 C         138.4870  140.4211  163.3845 C.ar    1  UNL1        0.0623
     28 C         138.1814  141.8845  163.2611 C.ar    1  UNL1        0.2611
     29 O         137.4096  142.3925  162.0795 O.2     1  UNL1       -0.2670
     30 N         138.6476  142.8398  164.3194 N.ar    1  UNL1       -0.2927
     31 N         140.4968  140.3606  166.8061 N.ar    1  UNL1       -0.2102
     32 C         142.4768  139.5076  168.9544 C.3     1  UNL1        0.2542
     33 O         141.7349  140.8080  169.0459 O.3     1  UNL1       -0.4561
@<TRIPOS>BOND
     1    32    33    1
     2    33    21    1
     3    21    22   ar
     4    22    23   ar
     5    23    24   ar
     6    24    25   ar
     7    25    26   ar
     8    26    27   ar
     9    27    28   ar
    10    28    29    2
    11    28    30   ar
    12    30    20    1
    13    20    19    1
    14    19     1    1
    15     1     2    1
    16     2     3    1
    17     3     4    1
    18     4     7    1
    19     7     9    1
    20     9    10    1
    21    10    11   ar
    22    11    12   ar
    23    12    13   ar
    24    13    14    1
    25    13    15   ar
    26    15    17    1
    27    17    18    3
    28    15    16   ar
    29     4     5    1
    30     5     6    1
    31    25    31   ar
    32    31    21   ar
    33    30    24   ar
    34     6     1    1
    35    16    10   ar
    36     7     8    1
@<TRIPOS>MOLECULE
*****
 33 36 0 0 0
SMALL
GASTEIGER

@<TRIPOS>ATOM
      1 N         139.5734  138.2981  164.1993 N.3     1  UNL1       -0.2710
      2 C         139.2301  138.6458  162.7811 C.3     1  UNL1        0.0735
      3 C         140.2604  138.4948  161.7014 C.3     1  UNL1        0.0331
      4 C         141.6340  137.9960  162.0399 C.3     1  UNL1        0.0570
      5 C         141.9772  137.6483  163.4581 C.3     1  UNL1        0.0331
      6 C         140.9469  137.7994  164.5378 C.3     1  UNL1        0.0735
      7 N         142.6642  137.8449  160.9603 N.3     1  UNL1       -0.2947
      8 H         142.2163  138.1181  160.0855 H       1  UNL1        0.1235
      9 C         143.9540  138.6063  161.0425 C.3     1  UNL1        0.0972
     10 C         143.9542  140.0339  161.5030 C.ar    1  UNL1        0.0135
     11 C         144.5695  140.3964  162.8220 C.ar    1  UNL1        0.0955
     12 N         144.5696  141.8240  163.2825 N.ar    1  UNL1       -0.2477
     13 C         143.9545  142.8890  162.4238 C.ar    1  UNL1        0.0689
     14 C         143.9546  144.3166  162.8843 C.3     1  UNL1        0.0528
     15 C         143.3392  142.5265  161.1048 C.ar    1  UNL1        0.0817
     16 C         143.3390  141.0990  160.6443 C.ar    1  UNL1        0.0101
     17 C         142.7240  143.5915  160.2461 C.1     1  UNL1        0.1016
     18 N         142.1088  144.6566  159.3874 N.1     1  UNL1       -0.1908
     19 C         138.5430  138.4492  165.2789 C.3     1  UNL1        0.0970
     20 C         138.3120  139.7888  165.9130 C.3     1  UNL1        0.1264
     21 C         138.7608  144.2858  162.9423 C.ar    1  UNL1        0.2250
     22 C         137.7183  143.2132  163.0545 C.ar    1  UNL1        0.0592
     23 C         137.9162  142.0717  164.0073 C.ar    1  UNL1        0.0236
     24 C         139.1566  142.0029  164.8480 C.ar    1  UNL1        0.0804
     25 C         140.1991  143.0756  164.7357 C.ar    1  UNL1        0.1003
     26 C         141.4395  143.0068  165.5764 C.ar    1  UNL1        0.0256
     27 C         141.6374  141.8654  166.5293 C.ar    1  UNL1        0.0623
     28 C         140.5949  140.7927  166.6414 C.ar    1  UNL1        0.2611
     29 O         140.7928  139.6512  167.5943 O.2     1  UNL1       -0.2670
     30 N         139.3545  140.8615  165.8008 N.ar    1  UNL1       -0.2927
     31 N         140.0012  144.2170  163.7829 N.ar    1  UNL1       -0.2102
     32 C         139.7193  146.3116  161.6279 C.3     1  UNL1        0.2542
     33 O         138.5629  145.4273  161.9894 O.3     1  UNL1       -0.4561
@<TRIPOS>BOND
     1    32    33    1
     2    33    21    1
     3    21    22   ar
     4    22    23   ar
     5    23    24   ar
     6    24    25   ar
     7    25    26   ar
     8    26    27   ar
     9    27    28   ar
    10    28    29    2
    11    28    30   ar
    12    30    20    1
    13    20    19    1
    14    19     1    1
    15     1     2    1
    16     2     3    1
    17     3     4    1
    18     4     7    1
    19     7     9    1
    20     9    10    1
    21    10    11   ar
    22    11    12   ar
    23    12    13   ar
    24    13    14    1
    25    13    15   ar
    26    15    17    1
    27    17    18    3
    28    15    16   ar
    29     4     5    1
    30     5     6    1
    31    25    31   ar
    32    31    21   ar
    33    30    24   ar
    34     6     1    1
    35    16    10   ar
    36     7     8    1
