@<TRIPOS>MOLECULE
*****
 40 44 0 0 0
SMALL
GASTEIGER

@<TRIPOS>ATOM
      1 C         143.9882  142.6080  159.0231 C.ar    1  UNL1        0.0536
      2 C         144.5404  142.5078  160.4142 C.ar    1  UNL1        0.0042
      3 C         143.8462  143.2018  161.5484 C.ar    1  UNL1       -0.0041
      4 C         142.5998  143.9960  161.2915 C.ar    1  UNL1       -0.0208
      5 C         142.0477  144.0962  159.9004 C.ar    1  UNL1       -0.0041
      6 C         142.7419  143.4022  158.7663 C.ar    1  UNL1        0.0042
      7 O         146.0009  142.4269  157.3901 O.2     1  UNL1       -0.2699
      8 C         144.6825  141.9140  157.8888 C.2     1  UNL1        0.2491
      9 N         144.0583  140.7072  157.2534 N.am    1  UNL1       -0.2732
     10 C         142.7398  140.1943  157.7521 C.3     1  UNL1        0.1111
     11 C         142.1156  138.9874  157.1165 C.3     1  UNL1        0.0942
     12 N         142.8098  138.2935  155.9823 N.3     1  UNL1       -0.2633
     13 C         144.1283  138.8064  155.4836 C.3     1  UNL1        0.0942
     14 C         144.7525  140.0132  156.1191 C.3     1  UNL1        0.1111
     15 C         142.1856  137.0866  155.3468 C.3     1  UNL1        0.1408
     16 C         142.4995  135.7164  155.8703 C.ar    1  UNL1        0.1766
     17 N         141.7467  134.4580  155.5543 N.ar    1  UNL1       -0.2061
     18 C         142.4033  133.3279  156.2904 C.ar    1  UNL1        0.1971
     19 N         143.5618  133.8879  157.0614 N.ar    1  UNL1       -0.2246
     20 N         143.6212  135.3640  156.8018 N.ar    1  UNL1       -0.1514
     21 C         144.4966  133.1085  157.9380 C.3     1  UNL1        0.2012
     22 C         145.0337  131.7871  157.4737 C.3     1  UNL1        0.3426
     23 F         145.3042  130.6965  158.4673 F       1  UNL1       -0.1962
     24 F         145.3003  131.5564  156.0157 F       1  UNL1       -0.1962
     25 C         141.9056  144.6900  162.4258 C.3     1  UNL1        0.0420
     26 C         140.7423  144.0330  163.1076 C.3     1  UNL1        0.0585
     27 C         140.1172  144.4680  164.3999 C.3     1  UNL1        0.0175
     28 C         138.9883  143.5296  164.7078 C.3     1  UNL1        0.0199
     29 C         138.9157  142.5144  163.6058 C.3     1  UNL1        0.0855
     30 N         139.9997  142.8256  162.6168 N.3     1  UNL1       -0.2971
     31 H         139.5896  143.0192  161.7032 H       1  UNL1        0.1233
     32 C         137.9318  141.3863  163.5097 C.3     1  UNL1        0.1470
     33 O         136.6014  141.6053  162.8522 O.3     1  UNL1       -0.3787
     34 H         136.0903  140.7812  162.8743 H       1  UNL1        0.2108
     35 C         138.2782  140.0392  164.0710 C.ar    1  UNL1        0.0055
     36 C         138.1008  139.7688  165.5357 C.ar    1  UNL1       -0.0019
     37 C         138.4472  138.4217  166.0971 C.ar    1  UNL1       -0.0002
     38 C         138.9710  137.3449  165.1937 C.ar    1  UNL1       -0.0000
     39 C         139.1483  137.6152  163.7290 C.ar    1  UNL1       -0.0002
     40 C         138.8020  138.9624  163.1676 C.ar    1  UNL1       -0.0019
@<TRIPOS>BOND
     1     7     8    2
     2     8     1    1
     3     1     2   ar
     4     2     3   ar
     5     3     4   ar
     6     4    25    1
     7    26    25    1
     8    26    27    1
     9    27    28    1
    10    29    28    1
    11    29    32    1
    12    32    33    1
    13    32    35    1
    14    35    36   ar
    15    36    37   ar
    16    37    38   ar
    17    38    39   ar
    18    39    40   ar
    19    29    30    1
    20     4     5   ar
    21     5     6   ar
    22     8     9   am
    23     9    10    1
    24    10    11    1
    25    11    12    1
    26    12    15    1
    27    15    16    1
    28    16    17   ar
    29    17    18   ar
    30    18    19   ar
    31    19    21    1
    32    21    22    1
    33    22    23    1
    34    22    24    1
    35    19    20   ar
    36    12    13    1
    37    13    14    1
    38     6     1   ar
    39    14     9    1
    40    30    26    1
    41    20    16   ar
    42    40    35   ar
    43    33    34    1
    44    30    31    1
@<TRIPOS>MOLECULE
*****
 40 44 0 0 0
SMALL
GASTEIGER

@<TRIPOS>ATOM
      1 C         138.2241  139.2075  162.3245 C.ar    1  UNL1        0.0536
      2 C         138.6486  137.9623  163.0451 C.ar    1  UNL1        0.0042
      3 C         138.7679  137.9650  164.5403 C.ar    1  UNL1       -0.0041
      4 C         138.4628  139.2127  165.3149 C.ar    1  UNL1       -0.0208
      5 C         138.0383  140.4579  164.5943 C.ar    1  UNL1       -0.0041
      6 C         137.9189  140.4553  163.0991 C.ar    1  UNL1        0.0042
      7 O         136.7796  139.4797  160.1822 O.2     1  UNL1       -0.2699
      8 C         138.1047  139.2049  160.8292 C.2     1  UNL1        0.2491
      9 N         139.3103  138.9276  159.9810 N.am    1  UNL1       -0.2732
     10 C         140.6354  138.6528  160.6280 C.3     1  UNL1        0.1111
     11 C         141.8411  138.3755  159.7798 C.3     1  UNL1        0.0942
     12 N         141.7217  138.3729  158.2846 N.3     1  UNL1       -0.2633
     13 C         140.3966  138.6477  157.6376 C.3     1  UNL1        0.0942
     14 C         139.1909  138.9250  158.4857 C.3     1  UNL1        0.1111
     15 C         142.9273  138.0956  157.4364 C.3     1  UNL1        0.1408
     16 C         143.1087  136.7451  156.8094 C.ar    1  UNL1        0.1766
     17 N         143.3386  136.4732  155.3522 N.ar    1  UNL1       -0.2061
     18 C         143.4640  134.9893  155.1718 C.ar    1  UNL1        0.1971
     19 N         143.3116  134.3442  156.5174 N.ar    1  UNL1       -0.2246
     20 N         143.0921  135.4293  157.5295 N.ar    1  UNL1       -0.1514
     21 C         143.3689  132.8724  156.8010 C.3     1  UNL1        0.2012
     22 C         144.6596  132.2413  157.2319 C.3     1  UNL1        0.3426
     23 F         145.4889  132.8859  158.3027 F       1  UNL1       -0.1962
     24 F         145.1211  130.9656  156.5920 F       1  UNL1       -0.1962
     25 C         138.5822  139.2153  166.8102 C.3     1  UNL1        0.0420
     26 C         139.6353  140.0498  167.4770 C.3     1  UNL1        0.0585
     27 C         139.6290  140.4988  168.9082 C.3     1  UNL1        0.0175
     28 C         140.8693  141.3082  169.1455 C.3     1  UNL1        0.0199
     29 C         141.6423  141.3595  167.8610 C.3     1  UNL1        0.0855
     30 N         140.8795  140.5817  166.8298 N.3     1  UNL1       -0.2971
     31 H         141.4497  139.8081  166.4880 H       1  UNL1        0.1233
     32 C         142.9485  142.0646  167.6455 C.3     1  UNL1        0.1470
     33 O         143.6519  142.7105  168.8022 O.3     1  UNL1       -0.3787
     34 H         144.4755  143.1189  168.4927 H       1  UNL1        0.2108
     35 C         143.5513  142.1240  166.2733 C.ar    1  UNL1        0.0055
     36 C         143.9785  143.4419  165.6982 C.ar    1  UNL1       -0.0019
     37 C         144.5814  143.5013  164.3260 C.ar    1  UNL1       -0.0002
     38 C         144.7571  142.2428  163.5289 C.ar    1  UNL1       -0.0000
     39 C         144.3298  140.9250  164.1040 C.ar    1  UNL1       -0.0002
     40 C         143.7270  140.8655  165.4762 C.ar    1  UNL1       -0.0019
@<TRIPOS>BOND
     1     7     8    2
     2     8     1    1
     3     1     2   ar
     4     2     3   ar
     5     3     4   ar
     6     4    25    1
     7    26    25    1
     8    26    27    1
     9    27    28    1
    10    29    28    1
    11    29    32    1
    12    32    33    1
    13    32    35    1
    14    35    36   ar
    15    36    37   ar
    16    37    38   ar
    17    38    39   ar
    18    39    40   ar
    19    29    30    1
    20     4     5   ar
    21     5     6   ar
    22     8     9   am
    23     9    10    1
    24    10    11    1
    25    11    12    1
    26    12    15    1
    27    15    16    1
    28    16    17   ar
    29    17    18   ar
    30    18    19   ar
    31    19    21    1
    32    21    22    1
    33    22    23    1
    34    22    24    1
    35    19    20   ar
    36    12    13    1
    37    13    14    1
    38     6     1   ar
    39    14     9    1
    40    30    26    1
    41    20    16   ar
    42    40    35   ar
    43    33    34    1
    44    30    31    1
@<TRIPOS>MOLECULE
*****
 40 44 0 0 0
SMALL
GASTEIGER

@<TRIPOS>ATOM
      1 C         140.6918  145.0349  159.6839 C.ar    1  UNL1        0.0536
      2 C         141.8672  144.2022  160.1018 C.ar    1  UNL1        0.0042
      3 C         142.2689  144.1431  161.5458 C.ar    1  UNL1       -0.0041
      4 C         141.4951  144.9167  162.5718 C.ar    1  UNL1       -0.0208
      5 C         140.3197  145.7495  162.1539 C.ar    1  UNL1       -0.0041
      6 C         139.9180  145.8086  160.7099 C.ar    1  UNL1        0.0042
      7 O         140.6748  146.2774  157.4022 O.2     1  UNL1       -0.2699
      8 C         140.2900  145.0940  158.2398 C.2     1  UNL1        0.2491
      9 N         139.5035  143.9699  157.6335 N.am    1  UNL1       -0.2732
     10 C         139.1188  142.7866  158.4712 C.3     1  UNL1        0.1111
     11 C         138.3322  141.6623  157.8648 C.3     1  UNL1        0.0942
     12 N         137.9305  141.7215  156.4208 N.3     1  UNL1       -0.2633
     13 C         138.3153  142.9048  155.5832 C.3     1  UNL1        0.0942
     14 C         139.1018  144.0290  156.1895 C.3     1  UNL1        0.1111
     15 C         137.1441  140.5974  155.8145 C.3     1  UNL1        0.1408
     16 C         135.6456  140.6593  155.7879 C.ar    1  UNL1        0.1766
     17 N         134.8076  141.2719  154.7049 N.ar    1  UNL1       -0.2061
     18 C         133.3661  141.1108  155.0873 C.ar    1  UNL1        0.1971
     19 N         133.3131  140.3987  156.4064 N.ar    1  UNL1       -0.2246
     20 N         134.7219  140.1197  156.8394 N.ar    1  UNL1       -0.1514
     21 C         132.0698  140.0303  157.1601 C.3     1  UNL1        0.2012
     22 C         131.9960  138.7230  157.8919 C.3     1  UNL1        0.3426
     23 F         130.6874  138.2497  158.4519 F       1  UNL1       -0.1962
     24 F         133.2308  137.8889  158.0636 F       1  UNL1       -0.1962
     25 C         141.8969  144.8576  164.0159 C.3     1  UNL1        0.0420
     26 C         142.2866  143.5472  164.6329 C.3     1  UNL1        0.0585
     27 C         143.6875  143.0669  164.8712 C.3     1  UNL1        0.0175
     28 C         143.6106  141.7098  165.5055 C.3     1  UNL1        0.0199
     29 C         142.1622  141.3513  165.6592 C.3     1  UNL1        0.0855
     30 N         141.3439  142.4869  165.1199 N.3     1  UNL1       -0.2971
     31 H         140.7485  142.8650  165.8567 H       1  UNL1        0.1233
     32 C         141.6262  140.0804  166.2487 C.3     1  UNL1        0.1470
     33 O         141.5417  138.8409  165.4081 O.3     1  UNL1       -0.3787
     34 H         141.1758  138.1153  165.9379 H       1  UNL1        0.2108
     35 C         141.1747  140.0489  167.6787 C.ar    1  UNL1        0.0055
     36 C         139.7626  140.4156  168.0276 C.ar    1  UNL1       -0.0019
     37 C         139.3110  140.3841  169.4577 C.ar    1  UNL1       -0.0002
     38 C         140.2715  139.9861  170.5389 C.ar    1  UNL1       -0.0000
     39 C         141.6836  139.6195  170.1900 C.ar    1  UNL1       -0.0002
     40 C         142.1352  139.6509  168.7599 C.ar    1  UNL1       -0.0019
@<TRIPOS>BOND
     1     7     8    2
     2     8     1    1
     3     1     2   ar
     4     2     3   ar
     5     3     4   ar
     6     4    25    1
     7    26    25    1
     8    26    27    1
     9    27    28    1
    10    29    28    1
    11    29    32    1
    12    32    33    1
    13    32    35    1
    14    35    36   ar
    15    36    37   ar
    16    37    38   ar
    17    38    39   ar
    18    39    40   ar
    19    29    30    1
    20     4     5   ar
    21     5     6   ar
    22     8     9   am
    23     9    10    1
    24    10    11    1
    25    11    12    1
    26    12    15    1
    27    15    16    1
    28    16    17   ar
    29    17    18   ar
    30    18    19   ar
    31    19    21    1
    32    21    22    1
    33    22    23    1
    34    22    24    1
    35    19    20   ar
    36    12    13    1
    37    13    14    1
    38     6     1   ar
    39    14     9    1
    40    30    26    1
    41    20    16   ar
    42    40    35   ar
    43    33    34    1
    44    30    31    1
@<TRIPOS>MOLECULE
*****
 40 44 0 0 0
SMALL
GASTEIGER

@<TRIPOS>ATOM
      1 C         144.3442  142.2197  161.6108 C.ar    1  UNL1        0.0536
      2 C         143.2961  143.1606  162.1267 C.ar    1  UNL1        0.0042
      3 C         143.0702  143.2946  163.6035 C.ar    1  UNL1       -0.0041
      4 C         143.8922  142.4877  164.5643 C.ar    1  UNL1       -0.0208
      5 C         144.9402  141.5468  164.0484 C.ar    1  UNL1       -0.0041
      6 C         145.1662  141.4128  162.5716 C.ar    1  UNL1        0.0042
      7 O         145.6320  142.9035  159.4604 O.2     1  UNL1       -0.2699
      8 C         144.5702  142.0856  160.1339 C.2     1  UNL1        0.2491
      9 N         143.7345  141.1337  159.3307 N.am    1  UNL1       -0.2732
     10 C         142.6727  140.3157  160.0042 C.3     1  UNL1        0.1111
     11 C         141.8369  139.3638  159.2008 C.3     1  UNL1        0.0942
     12 N         142.0630  139.2297  157.7240 N.3     1  UNL1       -0.2633
     13 C         143.1248  140.0477  157.0505 C.3     1  UNL1        0.0942
     14 C         143.9605  140.9996  157.8538 C.3     1  UNL1        0.1111
     15 C         141.2272  138.2778  156.9208 C.3     1  UNL1        0.1408
     16 C         141.7147  136.8821  156.6671 C.ar    1  UNL1        0.1766
     17 N         141.1345  135.9108  155.6821 N.ar    1  UNL1       -0.2061
     18 C         141.9292  134.6410  155.7602 C.ar    1  UNL1        0.1971
     19 N         143.0005  134.8274  156.7935 N.ar    1  UNL1       -0.2246
     20 N         142.8679  136.2124  157.3540 N.ar    1  UNL1       -0.1514
     21 C         144.0245  133.8078  157.1956 C.3     1  UNL1        0.2012
     22 C         143.8721  132.3802  156.7612 C.3     1  UNL1        0.3426
     23 F         142.5496  131.6881  156.9097 F       1  UNL1       -0.1962
     24 F         145.0421  131.6447  156.1782 F       1  UNL1       -0.1962
     25 C         143.6662  142.6218  166.0412 C.3     1  UNL1        0.0420
     26 C         142.4582  141.9979  166.6747 C.3     1  UNL1        0.0585
     27 C         141.9854  142.2212  168.0806 C.3     1  UNL1        0.0175
     28 C         140.7458  141.4025  168.2884 C.3     1  UNL1        0.0199
     29 C         140.4525  140.6731  167.0109 C.3     1  UNL1        0.0855
     30 N         141.5108  141.0411  166.0136 N.3     1  UNL1       -0.2971
     31 H         141.0818  141.4845  165.2013 H       1  UNL1        0.1233
     32 C         139.3028  139.7397  166.7725 C.3     1  UNL1        0.1470
     33 O         138.5099  139.2149  167.9326 O.3     1  UNL1       -0.3787
     34 H         137.8086  138.6294  167.6066 H       1  UNL1        0.2108
     35 C         138.9459  139.3311  165.3741 C.ar    1  UNL1        0.0055
     36 C         139.2788  137.9517  164.8878 C.ar    1  UNL1       -0.0019
     37 C         138.9220  137.5430  163.4894 C.ar    1  UNL1       -0.0002
     38 C         138.2322  138.5137  162.5773 C.ar    1  UNL1       -0.0000
     39 C         137.8992  139.8931  163.0636 C.ar    1  UNL1       -0.0002
     40 C         138.2561  140.3018  164.4620 C.ar    1  UNL1       -0.0019
@<TRIPOS>BOND
     1     7     8    2
     2     8     1    1
     3     1     2   ar
     4     2     3   ar
     5     3     4   ar
     6     4    25    1
     7    26    25    1
     8    26    27    1
     9    27    28    1
    10    29    28    1
    11    29    32    1
    12    32    33    1
    13    32    35    1
    14    35    36   ar
    15    36    37   ar
    16    37    38   ar
    17    38    39   ar
    18    39    40   ar
    19    29    30    1
    20     4     5   ar
    21     5     6   ar
    22     8     9   am
    23     9    10    1
    24    10    11    1
    25    11    12    1
    26    12    15    1
    27    15    16    1
    28    16    17   ar
    29    17    18   ar
    30    18    19   ar
    31    19    21    1
    32    21    22    1
    33    22    23    1
    34    22    24    1
    35    19    20   ar
    36    12    13    1
    37    13    14    1
    38     6     1   ar
    39    14     9    1
    40    30    26    1
    41    20    16   ar
    42    40    35   ar
    43    33    34    1
    44    30    31    1
@<TRIPOS>MOLECULE
*****
 40 44 0 0 0
SMALL
GASTEIGER

@<TRIPOS>ATOM
      1 C         138.0490  140.6902  159.3712 C.ar    1  UNL1        0.0536
      2 C         137.5361  139.7481  160.4198 C.ar    1  UNL1        0.0042
      3 C         137.4889  140.1783  161.8559 C.ar    1  UNL1       -0.0041
      4 C         137.9545  141.5505  162.2436 C.ar    1  UNL1       -0.0208
      5 C         138.4673  142.4925  161.1951 C.ar    1  UNL1       -0.0041
      6 C         138.5146  142.0624  159.7589 C.ar    1  UNL1        0.0042
      7 O         137.0321  140.7146  156.9805 O.2     1  UNL1       -0.2699
      8 C         138.0963  140.2600  157.9349 C.2     1  UNL1        0.2491
      9 N         139.2076  139.3754  157.4532 N.am    1  UNL1       -0.2732
     10 C         140.2718  138.9208  158.4076 C.3     1  UNL1        0.1111
     11 C         141.3832  138.0361  157.9257 C.3     1  UNL1        0.0942
     12 N         141.4305  137.6060  156.4895 N.3     1  UNL1       -0.2633
     13 C         140.3663  138.0606  155.5351 C.3     1  UNL1        0.0942
     14 C         139.2549  138.9453  156.0169 C.3     1  UNL1        0.1111
     15 C         142.5419  136.7214  156.0078 C.3     1  UNL1        0.1408
     16 C         142.3668  135.2316  156.0044 C.ar    1  UNL1        0.1766
     17 N         141.3917  134.4603  155.1650 N.ar    1  UNL1       -0.2061
     18 C         141.5585  133.0036  155.4817 C.ar    1  UNL1        0.1971
     19 N         142.6365  132.8746  156.5167 N.ar    1  UNL1       -0.2246
     20 N         143.1361  134.2516  156.8397 N.ar    1  UNL1       -0.1514
     21 C         143.1285  131.5936  157.1223 C.3     1  UNL1        0.2012
     22 C         144.5877  131.2505  157.0685 C.3     1  UNL1        0.3426
     23 F         145.3403  130.9739  158.3362 F       1  UNL1       -0.1962
     24 F         145.2944  131.1841  155.7471 F       1  UNL1       -0.1962
     25 C         137.9072  141.9806  163.6799 C.3     1  UNL1        0.0420
     26 C         138.8004  141.3229  164.6896 C.3     1  UNL1        0.0585
     27 C         138.3924  140.2642  165.6707 C.3     1  UNL1        0.0175
     28 C         139.5983  139.8954  166.4829 C.3     1  UNL1        0.0199
     29 C         140.7517  140.7261  166.0037 C.3     1  UNL1        0.0855
     30 N         140.2586  141.6083  164.8954 N.3     1  UNL1       -0.2971
     31 H         140.7747  141.4088  164.0385 H       1  UNL1        0.1233
     32 C         142.1523  140.6823  166.5389 C.3     1  UNL1        0.1470
     33 O         142.3958  140.3213  167.9743 O.3     1  UNL1       -0.3787
     34 H         143.3486  140.3397  168.1552 H       1  UNL1        0.2108
     35 C         143.3094  140.9993  165.6387 C.ar    1  UNL1        0.0055
     36 C         143.9981  139.8992  164.8868 C.ar    1  UNL1       -0.0019
     37 C         145.1553  140.2162  163.9866 C.ar    1  UNL1       -0.0002
     38 C         145.6238  141.6334  163.8383 C.ar    1  UNL1       -0.0000
     39 C         144.9351  142.7336  164.5902 C.ar    1  UNL1       -0.0002
     40 C         143.7780  142.4165  165.4904 C.ar    1  UNL1       -0.0019
@<TRIPOS>BOND
     1     7     8    2
     2     8     1    1
     3     1     2   ar
     4     2     3   ar
     5     3     4   ar
     6     4    25    1
     7    26    25    1
     8    26    27    1
     9    27    28    1
    10    29    28    1
    11    29    32    1
    12    32    33    1
    13    32    35    1
    14    35    36   ar
    15    36    37   ar
    16    37    38   ar
    17    38    39   ar
    18    39    40   ar
    19    29    30    1
    20     4     5   ar
    21     5     6   ar
    22     8     9   am
    23     9    10    1
    24    10    11    1
    25    11    12    1
    26    12    15    1
    27    15    16    1
    28    16    17   ar
    29    17    18   ar
    30    18    19   ar
    31    19    21    1
    32    21    22    1
    33    22    23    1
    34    22    24    1
    35    19    20   ar
    36    12    13    1
    37    13    14    1
    38     6     1   ar
    39    14     9    1
    40    30    26    1
    41    20    16   ar
    42    40    35   ar
    43    33    34    1
    44    30    31    1
@<TRIPOS>MOLECULE
*****
 40 44 0 0 0
SMALL
GASTEIGER

@<TRIPOS>ATOM
      1 C         142.8979  138.9075  159.8021 C.ar    1  UNL1        0.0536
      2 C         143.8114  140.0463  160.1463 C.ar    1  UNL1        0.0042
      3 C         144.3090  140.2100  161.5519 C.ar    1  UNL1       -0.0041
      4 C         143.8931  139.2350  162.6131 C.ar    1  UNL1       -0.0208
      5 C         142.9795  138.0962  162.2689 C.ar    1  UNL1       -0.0041
      6 C         142.4819  137.9325  160.8633 C.ar    1  UNL1        0.0042
      7 O         143.1004  137.8068  157.4574 O.2     1  UNL1       -0.2699
      8 C         142.4002  138.7437  158.3965 C.2     1  UNL1        0.2491
      9 N         141.2025  139.5169  157.9301 N.am    1  UNL1       -0.2732
     10 C         140.5024  140.4539  158.8691 C.3     1  UNL1        0.1111
     11 C         139.3046  141.2271  158.4026 C.3     1  UNL1        0.0942
     12 N         138.8070  141.0633  156.9971 N.3     1  UNL1       -0.2633
     13 C         139.5071  140.1263  156.0580 C.3     1  UNL1        0.0942
     14 C         140.7049  139.3532  156.5245 C.3     1  UNL1        0.1111
     15 C         137.6093  141.8365  156.5307 C.3     1  UNL1        0.1408
     16 C         136.4042  141.1107  156.0101 C.ar    1  UNL1        0.1766
     17 N         135.9759  141.0292  154.5748 N.ar    1  UNL1       -0.2061
     18 C         134.7228  140.2071  154.5111 C.ar    1  UNL1        0.1971
     19 N         134.3767  139.7805  155.9069 N.ar    1  UNL1       -0.2246
     20 N         135.4159  140.3390  156.8333 N.ar    1  UNL1       -0.1514
     21 C         133.1984  138.9427  156.3061 C.3     1  UNL1        0.2012
     22 C         132.6329  139.0551  157.6909 C.3     1  UNL1        0.3426
     23 F         131.2962  139.7011  157.9050 F       1  UNL1       -0.1962
     24 F         133.4042  138.5215  158.8615 F       1  UNL1       -0.1962
     25 C         144.3907  139.3987  164.0187 C.3     1  UNL1        0.0420
     26 C         143.4145  139.5636  165.1455 C.3     1  UNL1        0.0585
     27 C         143.4459  138.8304  166.4537 C.3     1  UNL1        0.0175
     28 C         142.2863  139.3043  167.2787 C.3     1  UNL1        0.0199
     29 C         141.5381  140.3305  166.4804 C.3     1  UNL1        0.0855
     30 N         142.2354  140.4908  165.1620 N.3     1  UNL1       -0.2971
     31 H         142.5512  141.4544  165.0523 H       1  UNL1        0.1233
     32 C         140.3086  141.0671  166.9228 C.3     1  UNL1        0.1470
     33 O         139.7899  140.8900  168.3191 O.3     1  UNL1       -0.3787
     34 H         138.9951  141.4327  168.4400 H       1  UNL1        0.2108
     35 C         139.5977  141.9807  165.9690 C.ar    1  UNL1        0.0055
     36 C         138.5746  141.4272  165.0219 C.ar    1  UNL1       -0.0019
     37 C         137.8637  142.3408  164.0680 C.ar    1  UNL1       -0.0002
     38 C         138.1759  143.8080  164.0612 C.ar    1  UNL1       -0.0000
     39 C         139.1990  144.3615  165.0082 C.ar    1  UNL1       -0.0002
     40 C         139.9100  143.4478  165.9621 C.ar    1  UNL1       -0.0019
@<TRIPOS>BOND
     1     7     8    2
     2     8     1    1
     3     1     2   ar
     4     2     3   ar
     5     3     4   ar
     6     4    25    1
     7    26    25    1
     8    26    27    1
     9    27    28    1
    10    29    28    1
    11    29    32    1
    12    32    33    1
    13    32    35    1
    14    35    36   ar
    15    36    37   ar
    16    37    38   ar
    17    38    39   ar
    18    39    40   ar
    19    29    30    1
    20     4     5   ar
    21     5     6   ar
    22     8     9   am
    23     9    10    1
    24    10    11    1
    25    11    12    1
    26    12    15    1
    27    15    16    1
    28    16    17   ar
    29    17    18   ar
    30    18    19   ar
    31    19    21    1
    32    21    22    1
    33    22    23    1
    34    22    24    1
    35    19    20   ar
    36    12    13    1
    37    13    14    1
    38     6     1   ar
    39    14     9    1
    40    30    26    1
    41    20    16   ar
    42    40    35   ar
    43    33    34    1
    44    30    31    1
@<TRIPOS>MOLECULE
*****
 40 44 0 0 0
SMALL
GASTEIGER

@<TRIPOS>ATOM
      1 C         138.9207  139.5299  159.2239 C.ar    1  UNL1        0.0536
      2 C         137.7988  139.9787  160.1126 C.ar    1  UNL1        0.0042
      3 C         137.7414  139.5177  161.5388 C.ar    1  UNL1       -0.0041
      4 C         138.8059  138.6079  162.0764 C.ar    1  UNL1       -0.0208
      5 C         139.9279  138.1590  161.1877 C.ar    1  UNL1       -0.0041
      6 C         139.9853  138.6200  159.7615 C.ar    1  UNL1        0.0042
      7 O         138.3890  139.1416  156.7107 O.2     1  UNL1       -0.2699
      8 C         138.9781  139.9909  157.7976 C.2     1  UNL1        0.2491
      9 N         139.6247  141.3012  157.4584 N.am    1  UNL1       -0.2732
     10 C         140.2138  142.1505  158.5454 C.3     1  UNL1        0.1111
     11 C         140.8604  143.4608  158.2061 C.3     1  UNL1        0.0942
     12 N         140.9178  143.9218  156.7799 N.3     1  UNL1       -0.2633
     13 C         140.3286  143.0725  155.6929 C.3     1  UNL1        0.0942
     14 C         139.6821  141.7622  156.0321 C.3     1  UNL1        0.1111
     15 C         141.5643  145.2321  156.4407 C.3     1  UNL1        0.1408
     16 C         140.7399  146.3518  155.8781 C.ar    1  UNL1        0.1766
     17 N         140.7299  146.8076  154.4490 N.ar    1  UNL1       -0.2061
     18 C         139.7645  147.9499  154.3336 C.ar    1  UNL1        0.1971
     19 N         139.1779  148.2001  155.6913 N.ar    1  UNL1       -0.2246
     20 N         139.7808  147.2124  156.6458 N.ar    1  UNL1       -0.1514
     21 C         138.1662  149.2530  156.0341 C.3     1  UNL1        0.2012
     22 C         138.2720  150.0010  157.3301 C.3     1  UNL1        0.3426
     23 F         139.1290  151.2288  157.4196 F       1  UNL1       -0.1962
     24 F         137.5207  149.5211  158.5364 F       1  UNL1       -0.1962
     25 C         138.7485  138.1468  163.5027 C.3     1  UNL1        0.0420
     26 C         139.1000  139.0937  164.6116 C.3     1  UNL1        0.0585
     27 C         138.7192  138.9418  166.0545 C.3     1  UNL1        0.0175
     28 C         139.2778  140.1129  166.8071 C.3     1  UNL1        0.0199
     29 C         140.0038  140.9887  165.8293 C.3     1  UNL1        0.0855
     30 N         139.8939  140.3588  164.4725 N.3     1  UNL1       -0.2971
     31 H         140.8245  140.1456  164.1134 H       1  UNL1        0.1233
     32 C         140.7148  142.2695  166.1518 C.3     1  UNL1        0.1470
     33 O         140.8374  143.3421  165.1104 O.3     1  UNL1       -0.3787
     34 H         141.3212  144.0974  165.4796 H       1  UNL1        0.2108
     35 C         141.3034  142.4777  167.5157 C.ar    1  UNL1        0.0055
     36 C         142.7244  142.0817  167.7878 C.ar    1  UNL1       -0.0019
     37 C         143.3130  142.2899  169.1516 C.ar    1  UNL1       -0.0002
     38 C         142.4806  142.8941  170.2434 C.ar    1  UNL1       -0.0000
     39 C         141.0596  143.2901  169.9714 C.ar    1  UNL1       -0.0002
     40 C         140.4710  143.0819  168.6075 C.ar    1  UNL1       -0.0019
@<TRIPOS>BOND
     1     7     8    2
     2     8     1    1
     3     1     2   ar
     4     2     3   ar
     5     3     4   ar
     6     4    25    1
     7    26    25    1
     8    26    27    1
     9    27    28    1
    10    29    28    1
    11    29    32    1
    12    32    33    1
    13    32    35    1
    14    35    36   ar
    15    36    37   ar
    16    37    38   ar
    17    38    39   ar
    18    39    40   ar
    19    29    30    1
    20     4     5   ar
    21     5     6   ar
    22     8     9   am
    23     9    10    1
    24    10    11    1
    25    11    12    1
    26    12    15    1
    27    15    16    1
    28    16    17   ar
    29    17    18   ar
    30    18    19   ar
    31    19    21    1
    32    21    22    1
    33    22    23    1
    34    22    24    1
    35    19    20   ar
    36    12    13    1
    37    13    14    1
    38     6     1   ar
    39    14     9    1
    40    30    26    1
    41    20    16   ar
    42    40    35   ar
    43    33    34    1
    44    30    31    1
@<TRIPOS>MOLECULE
*****
 40 44 0 0 0
SMALL
GASTEIGER

@<TRIPOS>ATOM
      1 C         142.1226  138.5886  159.8261 C.ar    1  UNL1        0.0536
      2 C         140.6889  139.0286  159.8578 C.ar    1  UNL1        0.0042
      3 C         139.8442  138.7455  161.0645 C.ar    1  UNL1       -0.0041
      4 C         140.4331  138.0226  162.2395 C.ar    1  UNL1       -0.0208
      5 C         141.8667  137.5827  162.2077 C.ar    1  UNL1       -0.0041
      6 C         142.7115  137.8657  161.0010 C.ar    1  UNL1        0.0042
      7 O         144.1100  139.8389  158.7138 O.2     1  UNL1       -0.2699
      8 C         142.9674  138.8717  158.6193 C.2     1  UNL1        0.2491
      9 N         142.6696  138.1875  157.3181 N.am    1  UNL1       -0.2732
     10 C         141.5270  137.2203  157.2236 C.3     1  UNL1        0.1111
     11 C         141.2293  136.5361  155.9223 C.3     1  UNL1        0.0942
     12 N         142.0741  136.8191  154.7156 N.3     1  UNL1       -0.2633
     13 C         143.2167  137.7863  154.8101 C.3     1  UNL1        0.0942
     14 C         143.5145  138.4705  156.1113 C.3     1  UNL1        0.1111
     15 C         141.7763  136.1349  153.4144 C.3     1  UNL1        0.1408
     16 C         142.0351  134.6651  153.2634 C.ar    1  UNL1        0.1766
     17 N         141.7706  133.8449  152.0356 N.ar    1  UNL1       -0.2061
     18 C         142.1758  132.4303  152.3272 C.ar    1  UNL1        0.1971
     19 N         142.6907  132.3764  153.7350 N.ar    1  UNL1       -0.2246
     20 N         142.6037  133.7575  154.3136 N.ar    1  UNL1       -0.1514
     21 C         143.2026  131.1556  154.4403 C.3     1  UNL1        0.2012
     22 C         143.8256  131.2804  155.7991 C.3     1  UNL1        0.3426
     23 F         142.9906  131.0771  157.0285 F       1  UNL1       -0.1962
     24 F         145.2835  131.6085  155.9286 F       1  UNL1       -0.1962
     25 C         139.5882  137.7396  163.4463 C.3     1  UNL1        0.0420
     26 C         139.4781  138.7595  164.5406 C.3     1  UNL1        0.0585
     27 C         138.7616  138.5782  165.8459 C.3     1  UNL1        0.0175
     28 C         138.9057  139.8464  166.6338 C.3     1  UNL1        0.0199
     29 C         139.7113  140.8115  165.8155 C.3     1  UNL1        0.0855
     30 N         140.0650  140.1398  164.5218 N.3     1  UNL1       -0.2971
     31 H         141.0790  140.0834  164.4270 H       1  UNL1        0.1233
     32 C         140.0957  142.2039  166.2198 C.3     1  UNL1        0.1470
     33 O         139.6304  143.3762  165.4078 O.3     1  UNL1       -0.3787
     34 H         139.9645  144.1965  165.8033 H       1  UNL1        0.2108
     35 C         140.9452  142.4241  167.4362 C.ar    1  UNL1        0.0055
     36 C         140.3576  143.0740  168.6538 C.ar    1  UNL1       -0.0019
     37 C         141.2072  143.2943  169.8702 C.ar    1  UNL1       -0.0002
     38 C         142.6443  142.8647  169.8691 C.ar    1  UNL1       -0.0000
     39 C         143.2319  142.2147  168.6516 C.ar    1  UNL1       -0.0002
     40 C         142.3824  141.9945  167.4351 C.ar    1  UNL1       -0.0019
@<TRIPOS>BOND
     1     7     8    2
     2     8     1    1
     3     1     2   ar
     4     2     3   ar
     5     3     4   ar
     6     4    25    1
     7    26    25    1
     8    26    27    1
     9    27    28    1
    10    29    28    1
    11    29    32    1
    12    32    33    1
    13    32    35    1
    14    35    36   ar
    15    36    37   ar
    16    37    38   ar
    17    38    39   ar
    18    39    40   ar
    19    29    30    1
    20     4     5   ar
    21     5     6   ar
    22     8     9   am
    23     9    10    1
    24    10    11    1
    25    11    12    1
    26    12    15    1
    27    15    16    1
    28    16    17   ar
    29    17    18   ar
    30    18    19   ar
    31    19    21    1
    32    21    22    1
    33    22    23    1
    34    22    24    1
    35    19    20   ar
    36    12    13    1
    37    13    14    1
    38     6     1   ar
    39    14     9    1
    40    30    26    1
    41    20    16   ar
    42    40    35   ar
    43    33    34    1
    44    30    31    1
@<TRIPOS>MOLECULE
*****
 40 44 0 0 0
SMALL
GASTEIGER

@<TRIPOS>ATOM
      1 C         144.1381  142.6098  159.2944 C.ar    1  UNL1        0.0536
      2 C         144.6586  142.3489  160.6768 C.ar    1  UNL1        0.0042
      3 C         143.9618  142.9427  161.8650 C.ar    1  UNL1       -0.0041
      4 C         142.7447  143.7976  161.6708 C.ar    1  UNL1       -0.0208
      5 C         142.2242  144.0586  160.2885 C.ar    1  UNL1       -0.0041
      6 C         142.9210  143.4647  159.1003 C.ar    1  UNL1        0.0042
      7 O         146.1436  142.5839  157.6430 O.2     1  UNL1       -0.2699
      8 C         144.8349  142.0160  158.1062 C.2     1  UNL1        0.2491
      9 N         144.2228  140.8542  157.3812 N.am    1  UNL1       -0.2732
     10 C         142.9140  140.2863  157.8444 C.3     1  UNL1        0.1111
     11 C         142.3020  139.1245  157.1193 C.3     1  UNL1        0.0942
     12 N         142.9987  138.5306  155.9311 N.3     1  UNL1       -0.2633
     13 C         144.3075  139.0986  155.4679 C.3     1  UNL1        0.0942
     14 C         144.9195  140.2603  156.1929 C.3     1  UNL1        0.1111
     15 C         142.3867  137.3689  155.2061 C.3     1  UNL1        0.1408
     16 C         142.8032  135.9686  155.5465 C.ar    1  UNL1        0.1766
     17 N         143.3750  135.5126  156.8562 N.ar    1  UNL1       -0.2061
     18 C         143.6462  134.0407  156.7560 C.ar    1  UNL1        0.1971
     19 N         143.2422  133.5871  155.3845 N.ar    1  UNL1       -0.2246
     20 N         142.7211  134.7786  154.6370 N.ar    1  UNL1       -0.1514
     21 C         143.3417  132.1877  154.8538 C.3     1  UNL1        0.2012
     22 C         142.8947  131.8826  153.4548 C.3     1  UNL1        0.3426
     23 F         141.5020  132.2304  153.0197 F       1  UNL1       -0.1962
     24 F         143.8406  131.2298  152.4909 F       1  UNL1       -0.1962
     25 C         142.0479  144.3915  162.8591 C.3     1  UNL1        0.0420
     26 C         140.6758  143.9184  163.2378 C.3     1  UNL1        0.0585
     27 C         139.6103  144.7421  163.8982 C.3     1  UNL1        0.0175
     28 C         138.4043  143.8713  164.0912 C.3     1  UNL1        0.0199
     29 C         138.7244  142.5094  163.5500 C.3     1  UNL1        0.0855
     30 N         140.1283  142.5386  163.0226 N.3     1  UNL1       -0.2971
     31 H         140.1287  142.3175  162.0268 H       1  UNL1        0.1233
     32 C         137.8025  141.3262  163.5383 C.3     1  UNL1        0.1470
     33 O         136.4081  141.4672  163.0038 O.3     1  UNL1       -0.3787
     34 H         135.9493  140.6150  163.0684 H       1  UNL1        0.2108
     35 C         138.2750  140.0021  164.0610 C.ar    1  UNL1        0.0055
     36 C         138.1722  139.6940  165.5255 C.ar    1  UNL1       -0.0019
     37 C         138.6447  138.3699  166.0483 C.ar    1  UNL1       -0.0002
     38 C         139.2199  137.3538  165.1067 C.ar    1  UNL1       -0.0000
     39 C         139.3227  137.6619  163.6423 C.ar    1  UNL1       -0.0002
     40 C         138.8503  138.9860  163.1194 C.ar    1  UNL1       -0.0019
@<TRIPOS>BOND
     1     7     8    2
     2     8     1    1
     3     1     2   ar
     4     2     3   ar
     5     3     4   ar
     6     4    25    1
     7    26    25    1
     8    26    27    1
     9    27    28    1
    10    29    28    1
    11    29    32    1
    12    32    33    1
    13    32    35    1
    14    35    36   ar
    15    36    37   ar
    16    37    38   ar
    17    38    39   ar
    18    39    40   ar
    19    29    30    1
    20     4     5   ar
    21     5     6   ar
    22     8     9   am
    23     9    10    1
    24    10    11    1
    25    11    12    1
    26    12    15    1
    27    15    16    1
    28    16    17   ar
    29    17    18   ar
    30    18    19   ar
    31    19    21    1
    32    21    22    1
    33    22    23    1
    34    22    24    1
    35    19    20   ar
    36    12    13    1
    37    13    14    1
    38     6     1   ar
    39    14     9    1
    40    30    26    1
    41    20    16   ar
    42    40    35   ar
    43    33    34    1
    44    30    31    1
