@<TRIPOS>MOLECULE
*****
 32 37 0 0 0
SMALL
GASTEIGER

@<TRIPOS>ATOM
      1 O         143.6909  139.4554  158.4273 O.2     1  UNL1       -0.2647
      2 C         142.4703  138.5843  158.4637 C.2     1  UNL1        0.3047
      3 N         141.2883  138.9838  159.2963 N.am    1  UNL1       -0.2647
      4 C         140.9666  140.1407  160.1953 C.3     1  UNL1        0.1391
      5 C         139.6167  139.5488  160.4738 C.3     1  UNL1        0.2052
      6 C         139.9385  138.3920  159.5749 C.3     1  UNL1        0.1391
      7 C         142.4317  137.3137  157.6675 C.ar    1  UNL1        0.3043
      8 N         141.4672  136.9935  156.5641 N.ar    1  UNL1       -0.1021
      9 N         141.7903  135.6222  156.0496 N.ar    1  UNL1       -0.1068
     10 C         142.9544  135.0947  156.8348 C.ar    1  UNL1        0.2501
     11 O         143.3508  136.1401  157.8347 O.2     1  UNL1       -0.4122
     12 C         143.6073  133.7567  156.6522 C.ar    1  UNL1        0.0551
     13 C         144.5043  133.2077  157.7218 C.ar    1  UNL1        0.0047
     14 C         145.1573  131.8697  157.5392 C.ar    1  UNL1        0.0002
     15 C         144.9134  131.0807  156.2871 C.ar    1  UNL1        0.0000
     16 C         144.0164  131.6297  155.2174 C.ar    1  UNL1        0.0002
     17 C         143.3634  132.9677  155.4000 C.ar    1  UNL1        0.0047
     18 O         138.4348  139.9484  161.3065 O.3     1  UNL1       -0.4756
     19 C         138.4681  139.7618  162.7945 C.ar    1  UNL1        0.1385
     20 C         138.8779  138.4412  163.3758 C.ar    1  UNL1        0.0366
     21 C         138.9113  138.2547  164.8639 C.ar    1  UNL1        0.0002
     22 C         138.5348  139.3889  165.7705 C.ar    1  UNL1       -0.0059
     23 C         138.1249  140.7095  165.1891 C.ar    1  UNL1        0.0002
     24 C         138.0916  140.8960  163.7011 C.ar    1  UNL1        0.0366
     25 C         138.5681  139.2024  167.2585 C.3     1  UNL1        0.0992
     26 N         139.3072  140.1822  168.1208 N.3     1  UNL1       -0.2685
     27 C         140.2635  141.3094  167.8654 C.3     1  UNL1        0.0785
     28 C         140.3525  141.5679  169.3402 C.3     1  UNL1        0.0840
     29 C         141.3088  142.6951  169.0849 C.3     1  UNL1        0.1471
     30 O         141.3978  142.9537  170.5598 O.3     1  UNL1       -0.3534
     31 C         140.4415  141.8266  170.8151 C.3     1  UNL1        0.1471
     32 C         139.3963  140.4409  169.5957 C.3     1  UNL1        0.0785
@<TRIPOS>BOND
     1     1     2    2
     2     2     7    1
     3     7     8   ar
     4     8     9   ar
     5     9    10   ar
     6    10    12    1
     7    12    13   ar
     8    13    14   ar
     9    14    15   ar
    10    15    16   ar
    11    16    17   ar
    12    10    11   ar
    13     2     3   am
    14     3     4    1
    15     4     5    1
    16     5    18    1
    17    18    19    1
    18    19    20   ar
    19    20    21   ar
    20    21    22   ar
    21    22    25    1
    22    25    26    1
    23    26    27    1
    24    27    28    1
    25    28    29    1
    26    29    30    1
    27    30    31    1
    28    28    32    1
    29    22    23   ar
    30    23    24   ar
    31     5     6    1
    32    11     7   ar
    33     6     3    1
    34    17    12   ar
    35    24    19   ar
    36    32    26    1
    37    31    28    1
@<TRIPOS>MOLECULE
*****
 32 37 0 0 0
SMALL
GASTEIGER

@<TRIPOS>ATOM
      1 O         141.9687  139.4851  156.9829 O.2     1  UNL1       -0.2647
      2 C         142.3031  138.2110  157.7005 C.2     1  UNL1        0.3047
      3 N         142.7331  138.2500  159.1370 N.am    1  UNL1       -0.2647
      4 C         142.9396  139.3338  160.1533 C.3     1  UNL1        0.1391
      5 C         143.3411  138.3051  161.1686 C.3     1  UNL1        0.2052
      6 C         143.1346  137.2214  160.1523 C.3     1  UNL1        0.1391
      7 C         142.2075  136.8980  156.9816 C.ar    1  UNL1        0.3043
      8 N         141.1050  136.4784  156.0550 N.ar    1  UNL1       -0.1021
      9 N         141.4138  135.0952  155.5638 N.ar    1  UNL1       -0.1068
     10 C         142.7070  134.6599  156.1868 C.ar    1  UNL1        0.2501
     11 O         143.1976  135.7741  157.0630 O.2     1  UNL1       -0.4122
     12 C         143.3898  133.3418  155.9713 C.ar    1  UNL1        0.0551
     13 C         144.4222  132.8633  156.9487 C.ar    1  UNL1        0.0047
     14 C         145.1050  131.5453  156.7333 C.ar    1  UNL1        0.0002
     15 C         144.7554  130.7056  155.5404 C.ar    1  UNL1        0.0000
     16 C         143.7230  131.1841  154.5630 C.ar    1  UNL1        0.0002
     17 C         143.0402  132.5022  154.7784 C.ar    1  UNL1        0.0047
     18 O         143.7711  138.3441  162.6051 O.3     1  UNL1       -0.4756
     19 C         142.7733  138.6651  163.6782 C.ar    1  UNL1        0.1385
     20 C         141.5155  137.8568  163.7989 C.ar    1  UNL1        0.0366
     21 C         140.5178  138.1779  164.8720 C.ar    1  UNL1        0.0002
     22 C         140.7779  139.3072  165.8244 C.ar    1  UNL1       -0.0059
     23 C         142.0357  140.1155  165.7036 C.ar    1  UNL1        0.0002
     24 C         143.0334  139.7945  164.6305 C.ar    1  UNL1        0.0366
     25 C         139.7802  139.6282  166.8974 C.3     1  UNL1        0.0992
     26 N         140.2226  140.3296  168.1474 N.3     1  UNL1       -0.2685
     27 C         140.7851  139.8912  169.4671 C.3     1  UNL1        0.0785
     28 C         140.8483  141.3214  169.9151 C.3     1  UNL1        0.0840
     29 C         141.4108  140.8830  171.2348 C.3     1  UNL1        0.1471
     30 O         141.4741  142.3132  171.6828 O.3     1  UNL1       -0.3534
     31 C         140.9116  142.7515  170.3631 C.3     1  UNL1        0.1471
     32 C         140.2859  141.7597  168.5954 C.3     1  UNL1        0.0785
@<TRIPOS>BOND
     1     1     2    2
     2     2     7    1
     3     7     8   ar
     4     8     9   ar
     5     9    10   ar
     6    10    12    1
     7    12    13   ar
     8    13    14   ar
     9    14    15   ar
    10    15    16   ar
    11    16    17   ar
    12    10    11   ar
    13     2     3   am
    14     3     4    1
    15     4     5    1
    16     5    18    1
    17    18    19    1
    18    19    20   ar
    19    20    21   ar
    20    21    22   ar
    21    22    25    1
    22    25    26    1
    23    26    27    1
    24    27    28    1
    25    28    29    1
    26    29    30    1
    27    30    31    1
    28    28    32    1
    29    22    23   ar
    30    23    24   ar
    31     5     6    1
    32    11     7   ar
    33     6     3    1
    34    17    12   ar
    35    24    19   ar
    36    32    26    1
    37    31    28    1
@<TRIPOS>MOLECULE
*****
 32 37 0 0 0
SMALL
GASTEIGER

@<TRIPOS>ATOM
      1 O         143.6742  138.5295  157.2584 O.2     1  UNL1       -0.2647
      2 C         142.3508  137.8251  157.3104 C.2     1  UNL1        0.3047
      3 N         141.1993  138.4457  158.0444 N.am    1  UNL1       -0.2647
      4 C         140.9954  139.7130  158.8207 C.3     1  UNL1        0.1391
      5 C         139.5707  139.3234  159.0825 C.3     1  UNL1        0.2052
      6 C         139.7746  138.0562  158.3063 C.3     1  UNL1        0.1391
      7 C         142.1790  136.5002  156.6284 C.ar    1  UNL1        0.3043
      8 N         141.1922  136.1890  155.5424 N.ar    1  UNL1       -0.1021
      9 N         141.3672  134.7505  155.1555 N.ar    1  UNL1       -0.1068
     10 C         142.4621  134.1725  156.0024 C.ar    1  UNL1        0.2501
     11 O         142.9638  135.2539  156.9127 O.2     1  UNL1       -0.4122
     12 C         142.9667  132.7610  155.9483 C.ar    1  UNL1        0.0551
     13 C         142.0072  131.6297  155.7257 C.ar    1  UNL1        0.0047
     14 C         142.5116  130.2180  155.6716 C.ar    1  UNL1        0.0002
     15 C         143.9754  129.9377  155.8402 C.ar    1  UNL1        0.0000
     16 C         144.9349  131.0690  156.0629 C.ar    1  UNL1        0.0002
     17 C         144.4305  132.4807  156.1169 C.ar    1  UNL1        0.0047
     18 O         138.4192  139.9440  159.8165 O.3     1  UNL1       -0.4756
     19 C         138.3558  139.8687  161.3133 C.ar    1  UNL1        0.1385
     20 C         138.7279  138.5973  162.0168 C.ar    1  UNL1        0.0366
     21 C         138.6645  138.5220  163.5136 C.ar    1  UNL1        0.0002
     22 C         138.2288  139.7182  164.3069 C.ar    1  UNL1       -0.0059
     23 C         137.8567  140.9897  163.6033 C.ar    1  UNL1        0.0002
     24 C         137.9201  141.0649  162.1066 C.ar    1  UNL1        0.0366
     25 C         138.1654  139.6430  165.8036 C.3     1  UNL1        0.0992
     26 N         139.4257  139.7247  166.6128 N.3     1  UNL1       -0.2685
     27 C         139.7428  139.9315  168.0643 C.3     1  UNL1        0.0785
     28 C         141.2081  139.8403  167.7572 C.3     1  UNL1        0.0840
     29 C         141.5252  140.0471  169.2087 C.3     1  UNL1        0.1471
     30 O         142.9906  139.9559  168.9016 O.3     1  UNL1       -0.3534
     31 C         142.6736  139.7492  167.4501 C.3     1  UNL1        0.1471
     32 C         140.8912  139.6336  166.3057 C.3     1  UNL1        0.0785
@<TRIPOS>BOND
     1     1     2    2
     2     2     7    1
     3     7     8   ar
     4     8     9   ar
     5     9    10   ar
     6    10    12    1
     7    12    13   ar
     8    13    14   ar
     9    14    15   ar
    10    15    16   ar
    11    16    17   ar
    12    10    11   ar
    13     2     3   am
    14     3     4    1
    15     4     5    1
    16     5    18    1
    17    18    19    1
    18    19    20   ar
    19    20    21   ar
    20    21    22   ar
    21    22    25    1
    22    25    26    1
    23    26    27    1
    24    27    28    1
    25    28    29    1
    26    29    30    1
    27    30    31    1
    28    28    32    1
    29    22    23   ar
    30    23    24   ar
    31     5     6    1
    32    11     7   ar
    33     6     3    1
    34    17    12   ar
    35    24    19   ar
    36    32    26    1
    37    31    28    1
@<TRIPOS>MOLECULE
*****
 32 37 0 0 0
SMALL
GASTEIGER

@<TRIPOS>ATOM
      1 O         142.4460  139.4759  156.8090 O.2     1  UNL1       -0.2647
      2 C         143.4365  139.8697  157.8645 C.2     1  UNL1        0.3047
      3 N         143.3433  139.2765  159.2391 N.am    1  UNL1       -0.2647
      4 C         142.4306  138.2935  159.9105 C.3     1  UNL1        0.1391
      5 C         143.2115  138.4377  161.1831 C.3     1  UNL1        0.2052
      6 C         144.1241  139.4207  160.5117 C.3     1  UNL1        0.1391
      7 C         144.5201  140.8565  157.5454 C.ar    1  UNL1        0.3043
      8 N         144.8732  142.0701  158.3533 N.ar    1  UNL1       -0.1021
      9 N         146.0122  142.7667  157.6695 N.ar    1  UNL1       -0.1068
     10 C         146.3630  141.9836  156.4392 C.ar    1  UNL1        0.2501
     11 O         145.4408  140.8031  156.3625 O.2     1  UNL1       -0.4122
     12 C         147.4458  142.3219  155.4578 C.ar    1  UNL1        0.0551
     13 C         148.7709  141.6227  155.5327 C.ar    1  UNL1        0.0047
     14 C         149.8538  141.9609  154.5515 C.ar    1  UNL1        0.0002
     15 C         149.6118  142.9981  153.4953 C.ar    1  UNL1        0.0000
     16 C         148.2867  143.6973  153.4204 C.ar    1  UNL1        0.0002
     17 C         147.2038  143.3591  154.4017 C.ar    1  UNL1        0.0047
     18 O         143.1182  137.8446  162.5576 O.3     1  UNL1       -0.4756
     19 C         142.1867  138.4416  163.5705 C.ar    1  UNL1        0.1385
     20 C         142.3196  139.8861  163.9522 C.ar    1  UNL1        0.0366
     21 C         141.3881  140.4830  164.9651 C.ar    1  UNL1        0.0002
     22 C         140.3236  139.6354  165.5963 C.ar    1  UNL1       -0.0059
     23 C         140.1907  138.1909  165.2146 C.ar    1  UNL1        0.0002
     24 C         141.1222  137.5940  164.2017 C.ar    1  UNL1        0.0366
     25 C         139.3921  140.2323  166.6091 C.3     1  UNL1        0.0992
     26 N         139.9299  140.7464  167.9116 N.3     1  UNL1       -0.2685
     27 C         140.0810  140.1823  169.2933 C.3     1  UNL1        0.0785
     28 C         140.6906  141.4733  169.7536 C.3     1  UNL1        0.0840
     29 C         140.8417  140.9092  171.1353 C.3     1  UNL1        0.1471
     30 O         141.4513  142.2002  171.5957 O.3     1  UNL1       -0.3534
     31 C         141.3002  142.7643  170.2139 C.3     1  UNL1        0.1471
     32 C         140.5395  142.0373  168.3719 C.3     1  UNL1        0.0785
@<TRIPOS>BOND
     1     1     2    2
     2     2     7    1
     3     7     8   ar
     4     8     9   ar
     5     9    10   ar
     6    10    12    1
     7    12    13   ar
     8    13    14   ar
     9    14    15   ar
    10    15    16   ar
    11    16    17   ar
    12    10    11   ar
    13     2     3   am
    14     3     4    1
    15     4     5    1
    16     5    18    1
    17    18    19    1
    18    19    20   ar
    19    20    21   ar
    20    21    22   ar
    21    22    25    1
    22    25    26    1
    23    26    27    1
    24    27    28    1
    25    28    29    1
    26    29    30    1
    27    30    31    1
    28    28    32    1
    29    22    23   ar
    30    23    24   ar
    31     5     6    1
    32    11     7   ar
    33     6     3    1
    34    17    12   ar
    35    24    19   ar
    36    32    26    1
    37    31    28    1
@<TRIPOS>MOLECULE
*****
 32 37 0 0 0
SMALL
GASTEIGER

@<TRIPOS>ATOM
      1 O         139.5020  146.1549  160.9331 O.2     1  UNL1       -0.2647
      2 C         140.4235  145.3147  160.0994 C.2     1  UNL1        0.3047
      3 N         141.5205  144.5288  160.7544 N.am    1  UNL1       -0.2647
      4 C         141.9915  144.3382  162.1657 C.3     1  UNL1        0.1391
      5 C         143.0718  143.4173  161.6807 C.3     1  UNL1        0.2052
      6 C         142.6007  143.6080  160.2694 C.3     1  UNL1        0.1391
      7 C         140.2481  145.2606  158.6107 C.ar    1  UNL1        0.3043
      8 N         139.7443  144.0866  157.8244 N.ar    1  UNL1       -0.1021
      9 N         139.7305  144.4714  156.3747 N.ar    1  UNL1       -0.1068
     10 C         140.2256  145.8830  156.2650 C.ar    1  UNL1        0.2501
     11 O         140.5455  146.3708  157.6468 O.2     1  UNL1       -0.4122
     12 C         140.3746  146.6689  154.9960 C.ar    1  UNL1        0.0551
     13 C         141.1433  146.0936  153.8435 C.ar    1  UNL1        0.0047
     14 C         141.2924  146.8793  152.5745 C.ar    1  UNL1        0.0002
     15 C         140.6728  148.2403  152.4580 C.ar    1  UNL1        0.0000
     16 C         139.9041  148.8156  153.6104 C.ar    1  UNL1        0.0002
     17 C         139.7550  148.0299  154.8794 C.ar    1  UNL1        0.0047
     18 O         144.1687  142.6314  162.3357 O.3     1  UNL1       -0.4756
     19 C         143.8595  141.7409  163.5025 C.ar    1  UNL1        0.1385
     20 C         143.1880  142.3051  164.7194 C.ar    1  UNL1        0.0366
     21 C         142.8789  141.4146  165.8862 C.ar    1  UNL1        0.0002
     22 C         143.2412  139.9599  165.8362 C.ar    1  UNL1       -0.0059
     23 C         143.9127  139.3957  164.6192 C.ar    1  UNL1        0.0002
     24 C         144.2219  140.2862  163.4525 C.ar    1  UNL1        0.0366
     25 C         142.9321  139.0694  167.0029 C.3     1  UNL1        0.0992
     26 N         142.2913  139.6403  168.2331 N.3     1  UNL1       -0.2685
     27 C         142.7972  140.2356  169.5137 C.3     1  UNL1        0.0785
     28 C         141.3851  140.4478  169.9729 C.3     1  UNL1        0.0840
     29 C         141.8910  141.0430  171.2535 C.3     1  UNL1        0.1471
     30 O         140.4788  141.2552  171.7127 O.3     1  UNL1       -0.3534
     31 C         139.9729  140.6600  170.4321 C.3     1  UNL1        0.1471
     32 C         140.8791  139.8526  168.6924 C.3     1  UNL1        0.0785
@<TRIPOS>BOND
     1     1     2    2
     2     2     7    1
     3     7     8   ar
     4     8     9   ar
     5     9    10   ar
     6    10    12    1
     7    12    13   ar
     8    13    14   ar
     9    14    15   ar
    10    15    16   ar
    11    16    17   ar
    12    10    11   ar
    13     2     3   am
    14     3     4    1
    15     4     5    1
    16     5    18    1
    17    18    19    1
    18    19    20   ar
    19    20    21   ar
    20    21    22   ar
    21    22    25    1
    22    25    26    1
    23    26    27    1
    24    27    28    1
    25    28    29    1
    26    29    30    1
    27    30    31    1
    28    28    32    1
    29    22    23   ar
    30    23    24   ar
    31     5     6    1
    32    11     7   ar
    33     6     3    1
    34    17    12   ar
    35    24    19   ar
    36    32    26    1
    37    31    28    1
@<TRIPOS>MOLECULE
*****
 32 37 0 0 0
SMALL
GASTEIGER

@<TRIPOS>ATOM
      1 O         144.0528  139.2162  157.2494 O.2     1  UNL1       -0.2647
      2 C         142.8885  138.4302  157.7755 C.2     1  UNL1        0.3047
      3 N         142.1691  138.8901  159.0087 N.am    1  UNL1       -0.2647
      4 C         142.3172  140.0448  159.9546 C.3     1  UNL1        0.1391
      5 C         141.1516  139.5404  160.7528 C.3     1  UNL1        0.2052
      6 C         141.0034  138.3858  159.8069 C.3     1  UNL1        0.1391
      7 C         142.4438  137.1843  157.0684 C.ar    1  UNL1        0.3043
      8 N         141.1932  137.0312  156.2543 N.ar    1  UNL1       -0.1021
      9 N         141.1481  135.6251  155.7340 N.ar    1  UNL1       -0.1068
     10 C         142.3708  134.9092  156.2265 C.ar    1  UNL1        0.2501
     11 O         143.1715  135.8728  157.0512 O.2     1  UNL1       -0.4122
     12 C         142.7295  133.4804  155.9439 C.ar    1  UNL1        0.0551
     13 C         144.1391  133.0076  156.1432 C.ar    1  UNL1        0.0047
     14 C         144.4980  131.5789  155.8606 C.ar    1  UNL1        0.0002
     15 C         143.4473  130.6229  155.3786 C.ar    1  UNL1        0.0000
     16 C         142.0378  131.0957  155.1792 C.ar    1  UNL1        0.0002
     17 C         141.6789  132.5245  155.4619 C.ar    1  UNL1        0.0047
     18 O         140.4321  140.0003  161.9860 O.3     1  UNL1       -0.4756
     19 C         141.0497  139.7906  163.3368 C.ar    1  UNL1        0.1385
     20 C         142.3294  139.0186  163.4647 C.ar    1  UNL1        0.0366
     21 C         142.9470  138.8089  164.8155 C.ar    1  UNL1        0.0002
     22 C         142.2848  139.3711  166.0384 C.ar    1  UNL1       -0.0059
     23 C         141.0050  140.1430  165.9105 C.ar    1  UNL1        0.0002
     24 C         140.3875  140.3528  164.5597 C.ar    1  UNL1        0.0366
     25 C         142.9023  139.1613  167.3892 C.3     1  UNL1        0.0992
     26 N         142.3560  139.8850  168.5841 N.3     1  UNL1       -0.2685
     27 C         142.8045  141.0509  169.4146 C.3     1  UNL1        0.0785
     28 C         141.5835  140.9083  170.2740 C.3     1  UNL1        0.0840
     29 C         142.0319  142.0743  171.1045 C.3     1  UNL1        0.1471
     30 O         140.8109  141.9317  171.9640 O.3     1  UNL1       -0.3534
     31 C         140.3624  140.7658  171.1336 C.3     1  UNL1        0.1471
     32 C         141.1350  139.7424  169.4437 C.3     1  UNL1        0.0785
@<TRIPOS>BOND
     1     1     2    2
     2     2     7    1
     3     7     8   ar
     4     8     9   ar
     5     9    10   ar
     6    10    12    1
     7    12    13   ar
     8    13    14   ar
     9    14    15   ar
    10    15    16   ar
    11    16    17   ar
    12    10    11   ar
    13     2     3   am
    14     3     4    1
    15     4     5    1
    16     5    18    1
    17    18    19    1
    18    19    20   ar
    19    20    21   ar
    20    21    22   ar
    21    22    25    1
    22    25    26    1
    23    26    27    1
    24    27    28    1
    25    28    29    1
    26    29    30    1
    27    30    31    1
    28    28    32    1
    29    22    23   ar
    30    23    24   ar
    31     5     6    1
    32    11     7   ar
    33     6     3    1
    34    17    12   ar
    35    24    19   ar
    36    32    26    1
    37    31    28    1
@<TRIPOS>MOLECULE
*****
 32 37 0 0 0
SMALL
GASTEIGER

@<TRIPOS>ATOM
      1 O         138.4753  137.7871  164.9552 O.2     1  UNL1       -0.2647
      2 C         138.8962  139.0287  164.2263 C.2     1  UNL1        0.3047
      3 N         138.9265  139.0442  162.7267 N.am    1  UNL1       -0.2647
      4 C         138.6165  138.0478  161.6492 C.3     1  UNL1        0.1391
      5 C         138.9692  139.0662  160.6059 C.3     1  UNL1        0.2052
      6 C         139.2792  140.0626  161.6834 C.3     1  UNL1        0.1391
      7 C         139.2869  140.2548  164.9971 C.ar    1  UNL1        0.3043
      8 N         138.9176  141.6674  164.6531 N.ar    1  UNL1       -0.1021
      9 N         139.5179  142.5691  165.6906 N.ar    1  UNL1       -0.1068
     10 C         140.2584  141.7139  166.6757 C.ar    1  UNL1        0.2501
     11 O         140.1156  140.2836  166.2471 O.2     1  UNL1       -0.4122
     12 C         141.0096  142.2032  167.8783 C.ar    1  UNL1        0.0551
     13 C         142.4205  141.7525  168.1156 C.ar    1  UNL1        0.0047
     14 C         143.1719  142.2418  169.3181 C.ar    1  UNL1        0.0002
     15 C         142.5123  143.1817  170.2833 C.ar    1  UNL1        0.0000
     16 C         141.1015  143.6324  170.0459 C.ar    1  UNL1        0.0002
     17 C         140.3501  143.1431  168.8434 C.ar    1  UNL1        0.0047
     18 O         138.9994  139.0817  159.1063 O.3     1  UNL1       -0.4756
     19 C         140.1042  138.3823  158.3712 C.ar    1  UNL1        0.1385
     20 C         141.4952  138.3811  158.9323 C.ar    1  UNL1        0.0366
     21 C         142.6000  137.6818  158.1971 C.ar    1  UNL1        0.0002
     22 C         142.3137  136.9836  156.9008 C.ar    1  UNL1       -0.0059
     23 C         140.9225  136.9848  156.3396 C.ar    1  UNL1        0.0002
     24 C         139.8178  137.6841  157.0748 C.ar    1  UNL1        0.0366
     25 C         143.4183  136.2842  156.1656 C.3     1  UNL1        0.0992
     26 N         143.4898  134.7860  156.1680 N.3     1  UNL1       -0.2685
     27 C         143.3497  133.7157  155.1263 C.3     1  UNL1        0.0785
     28 C         143.5908  132.6671  156.1713 C.3     1  UNL1        0.0840
     29 C         143.4508  131.5968  155.1297 C.3     1  UNL1        0.1471
     30 O         143.6919  130.5481  156.1747 O.3     1  UNL1       -0.3534
     31 C         143.8320  131.6183  157.2164 C.3     1  UNL1        0.1471
     32 C         143.7309  133.7372  157.2130 C.3     1  UNL1        0.0785
@<TRIPOS>BOND
     1     1     2    2
     2     2     7    1
     3     7     8   ar
     4     8     9   ar
     5     9    10   ar
     6    10    12    1
     7    12    13   ar
     8    13    14   ar
     9    14    15   ar
    10    15    16   ar
    11    16    17   ar
    12    10    11   ar
    13     2     3   am
    14     3     4    1
    15     4     5    1
    16     5    18    1
    17    18    19    1
    18    19    20   ar
    19    20    21   ar
    20    21    22   ar
    21    22    25    1
    22    25    26    1
    23    26    27    1
    24    27    28    1
    25    28    29    1
    26    29    30    1
    27    30    31    1
    28    28    32    1
    29    22    23   ar
    30    23    24   ar
    31     5     6    1
    32    11     7   ar
    33     6     3    1
    34    17    12   ar
    35    24    19   ar
    36    32    26    1
    37    31    28    1
@<TRIPOS>MOLECULE
*****
 32 37 0 0 0
SMALL
GASTEIGER

@<TRIPOS>ATOM
      1 O         139.7109  142.7763  157.1204 O.2     1  UNL1       -0.2647
      2 C         139.9145  144.2263  157.4466 C.2     1  UNL1        0.3047
      3 N         140.0248  144.6651  158.8767 N.am    1  UNL1       -0.2647
      4 C         139.9815  143.9706  160.2055 C.3     1  UNL1        0.1391
      5 C         140.1807  145.2856  160.8992 C.3     1  UNL1        0.2052
      6 C         140.2240  145.9800  159.5703 C.3     1  UNL1        0.1391
      7 C         140.0079  145.2374  156.3425 C.ar    1  UNL1        0.3043
      8 N         140.5826  145.0015  154.9771 N.ar    1  UNL1       -0.1021
      9 N         140.4728  146.2802  154.2008 N.ar    1  UNL1       -0.1068
     10 C         139.8302  147.3064  155.0863 C.ar    1  UNL1        0.2501
     11 O         139.5429  146.6619  156.4099 O.2     1  UNL1       -0.4122
     12 C         139.5281  148.7276  154.7134 C.ar    1  UNL1        0.0551
     13 C         139.9038  149.2427  153.3557 C.ar    1  UNL1        0.0047
     14 C         139.6017  150.6639  152.9827 C.ar    1  UNL1        0.0002
     15 C         138.9239  151.5698  153.9675 C.ar    1  UNL1        0.0000
     16 C         138.5482  151.0546  155.3253 C.ar    1  UNL1        0.0002
     17 C         138.8503  149.6335  155.6982 C.ar    1  UNL1        0.0047
     18 O         140.2910  145.7244  162.3293 O.3     1  UNL1       -0.4756
     19 C         140.7845  144.7656  163.3721 C.ar    1  UNL1        0.1385
     20 C         139.8046  143.9820  164.1942 C.ar    1  UNL1        0.0366
     21 C         140.2981  143.0232  165.2370 C.ar    1  UNL1        0.0002
     22 C         141.7714  142.8481  165.4576 C.ar    1  UNL1       -0.0059
     23 C         142.7513  143.6318  164.6355 C.ar    1  UNL1        0.0002
     24 C         142.2578  144.5905  163.5928 C.ar    1  UNL1        0.0366
     25 C         142.2649  141.8894  166.5003 C.3     1  UNL1        0.0992
     26 N         141.7589  141.9876  167.9090 N.3     1  UNL1       -0.2685
     27 C         142.0676  141.2857  169.1983 C.3     1  UNL1        0.0785
     28 C         141.0433  142.1265  169.9011 C.3     1  UNL1        0.0840
     29 C         141.3520  141.4246  171.1904 C.3     1  UNL1        0.1471
     30 O         140.3277  142.2653  171.8933 O.3     1  UNL1       -0.3534
     31 C         140.0190  142.9672  170.6041 C.3     1  UNL1        0.1471
     32 C         140.7345  142.8283  168.6119 C.3     1  UNL1        0.0785
@<TRIPOS>BOND
     1     1     2    2
     2     2     7    1
     3     7     8   ar
     4     8     9   ar
     5     9    10   ar
     6    10    12    1
     7    12    13   ar
     8    13    14   ar
     9    14    15   ar
    10    15    16   ar
    11    16    17   ar
    12    10    11   ar
    13     2     3   am
    14     3     4    1
    15     4     5    1
    16     5    18    1
    17    18    19    1
    18    19    20   ar
    19    20    21   ar
    20    21    22   ar
    21    22    25    1
    22    25    26    1
    23    26    27    1
    24    27    28    1
    25    28    29    1
    26    29    30    1
    27    30    31    1
    28    28    32    1
    29    22    23   ar
    30    23    24   ar
    31     5     6    1
    32    11     7   ar
    33     6     3    1
    34    17    12   ar
    35    24    19   ar
    36    32    26    1
    37    31    28    1
@<TRIPOS>MOLECULE
*****
 32 37 0 0 0
SMALL
GASTEIGER

@<TRIPOS>ATOM
      1 O         139.2652  139.9158  156.0397 O.2     1  UNL1       -0.2647
      2 C         139.7569  139.1789  157.2502 C.2     1  UNL1        0.3047
      3 N         139.0911  139.3887  158.5778 N.am    1  UNL1       -0.2647
      4 C         137.9470  140.2245  159.0703 C.3     1  UNL1        0.1391
      5 C         138.1495  139.6856  160.4554 C.3     1  UNL1        0.2052
      6 C         139.2936  138.8498  159.9629 C.3     1  UNL1        0.1391
      7 C         140.9145  138.2321  157.1330 C.ar    1  UNL1        0.3043
      8 N         142.3146  138.4884  157.6065 N.ar    1  UNL1       -0.1021
      9 N         143.1405  137.2775  157.2879 N.ar    1  UNL1       -0.1068
     10 C         142.2509  136.2729  156.6174 C.ar    1  UNL1        0.2501
     11 O         140.8752  136.8629  156.5217 O.2     1  UNL1       -0.4122
     12 C         142.6646  134.9165  156.1286 C.ar    1  UNL1        0.0551
     13 C         143.4575  134.0076  157.0204 C.ar    1  UNL1        0.0047
     14 C         143.8712  132.6512  156.5317 C.ar    1  UNL1        0.0002
     15 C         143.4922  132.2036  155.1511 C.ar    1  UNL1        0.0000
     16 C         142.6993  133.1125  154.2593 C.ar    1  UNL1        0.0002
     17 C         142.2856  134.4689  154.7480 C.ar    1  UNL1        0.0047
     18 O         137.4837  139.8955  161.7830 O.3     1  UNL1       -0.4756
     19 C         138.1932  140.6522  162.8666 C.ar    1  UNL1        0.1385
     20 C         137.5302  141.8305  163.5161 C.ar    1  UNL1        0.0366
     21 C         138.2397  142.5872  164.5997 C.ar    1  UNL1        0.0002
     22 C         139.6122  142.1655  165.0337 C.ar    1  UNL1       -0.0059
     23 C         140.2752  140.9871  164.3841 C.ar    1  UNL1        0.0002
     24 C         139.5657  140.2305  163.3006 C.ar    1  UNL1        0.0366
     25 C         140.3217  142.9222  166.1172 C.3     1  UNL1        0.0992
     26 N         140.3239  142.3956  167.5218 N.3     1  UNL1       -0.2685
     27 C         140.5154  143.0004  168.8810 C.3     1  UNL1        0.0785
     28 C         140.3271  141.6509  169.5081 C.3     1  UNL1        0.0840
     29 C         140.5186  142.2558  170.8673 C.3     1  UNL1        0.1471
     30 O         140.3303  140.9061  171.4944 O.3     1  UNL1       -0.3534
     31 C         140.1388  140.3013  170.1352 C.3     1  UNL1        0.1471
     32 C         140.1356  141.0460  168.1489 C.3     1  UNL1        0.0785
@<TRIPOS>BOND
     1     1     2    2
     2     2     7    1
     3     7     8   ar
     4     8     9   ar
     5     9    10   ar
     6    10    12    1
     7    12    13   ar
     8    13    14   ar
     9    14    15   ar
    10    15    16   ar
    11    16    17   ar
    12    10    11   ar
    13     2     3   am
    14     3     4    1
    15     4     5    1
    16     5    18    1
    17    18    19    1
    18    19    20   ar
    19    20    21   ar
    20    21    22   ar
    21    22    25    1
    22    25    26    1
    23    26    27    1
    24    27    28    1
    25    28    29    1
    26    29    30    1
    27    30    31    1
    28    28    32    1
    29    22    23   ar
    30    23    24   ar
    31     5     6    1
    32    11     7   ar
    33     6     3    1
    34    17    12   ar
    35    24    19   ar
    36    32    26    1
    37    31    28    1
