@<TRIPOS>MOLECULE
*****
 39 43 0 0 0
SMALL
GASTEIGER

@<TRIPOS>ATOM
      1 C         141.6523  144.6270  162.9576 C.3     1  UNL1        0.0162
      2 C         142.0401  143.9385  161.6826 C.3     1  UNL1        0.0028
      3 C         143.3411  143.1970  161.5964 C.3     1  UNL1        0.0158
      4 C         144.2542  143.1439  162.7852 C.3     1  UNL1        0.0543
      5 C         143.8664  143.8323  164.0602 C.3     1  UNL1        0.0158
      6 C         142.5654  144.5738  164.1464 C.3     1  UNL1        0.0028
      7 C         140.3512  145.3686  163.0437 C.3     1  UNL1        0.0737
      8 N         140.1314  146.5967  162.2110 N.3     1  UNL1       -0.3206
      9 H         140.9633  146.7807  161.6503 H       1  UNL1        0.1189
     10 H         139.9498  147.3934  162.8215 H       1  UNL1        0.1189
     11 C         139.2700  144.8820  163.9625 C.3     1  UNL1        0.1244
     12 C         140.4234  142.2902  167.4557 C.ar    1  UNL1        0.1402
     13 C         140.0474  140.8382  167.4687 C.ar    1  UNL1        0.0370
     14 C         139.2870  140.2501  166.3172 C.ar    1  UNL1        0.0045
     15 C         138.9025  141.1139  165.1529 C.ar    1  UNL1        0.0162
     16 C         138.1420  140.5258  164.0014 C.ar    1  UNL1        0.0063
     17 C         137.7575  141.3897  162.8371 C.ar    1  UNL1        0.0608
     18 C         138.1335  142.8418  162.8241 C.ar    1  UNL1        0.2610
     19 O         137.7490  143.7057  161.6597 O.2     1  UNL1       -0.2670
     20 N         138.8940  143.4299  163.9755 N.ar    1  UNL1       -0.2940
     21 C         139.2785  142.5660  165.1399 C.ar    1  UNL1        0.0655
     22 C         140.0390  143.1541  166.2913 C.ar    1  UNL1        0.0541
     23 C         140.4659  143.6916  169.6429 C.3     1  UNL1        0.2525
     24 O         141.1839  142.8783  168.6071 O.3     1  UNL1       -0.4714
     25 N         145.5553  142.4023  162.6991 N.3     1  UNL1       -0.2922
     26 H         146.2782  143.0351  163.0417 H       1  UNL1        0.1236
     27 C         145.7301  141.1066  163.4344 C.3     1  UNL1        0.1353
     28 C         144.5454  140.2221  163.6875 C.ar    1  UNL1        0.1567
     29 N         144.3927  139.5338  165.0115 N.ar    1  UNL1       -0.2245
     30 C         143.2079  138.6493  165.2647 C.ar    1  UNL1        0.1400
     31 C         142.1760  138.4531  164.1939 C.ar    1  UNL1        0.1898
     32 C         142.3288  139.1415  162.8699 C.ar    1  UNL1        0.1715
     33 N         143.5135  140.0259  162.6167 N.ar    1  UNL1       -0.2113
     34 N         141.2969  138.9453  161.7991 N.am    1  UNL1       -0.2638
     35 C         140.1121  138.0607  162.0523 C.2     1  UNL1        0.2718
     36 O         139.0802  137.8645  160.9815 O.2     1  UNL1       -0.2707
     37 C         139.9594  137.3724  163.3762 C.3     1  UNL1        0.2899
     38 O         140.9913  137.5686  164.4470 O.3     1  UNL1       -0.4612
     39 H         141.3971  139.3970  160.9301 H       1  UNL1        0.1565
@<TRIPOS>BOND
     1    23    24    1
     2    24    12    1
     3    12    13   ar
     4    13    14   ar
     5    14    15   ar
     6    15    16   ar
     7    16    17   ar
     8    17    18   ar
     9    18    19    2
    10    18    20   ar
    11    20    11    1
    12    11     7    1
    13     7     8    1
    14     7     1    1
    15     1     2    1
    16     2     3    1
    17     3     4    1
    18     4    25    1
    19    25    27    1
    20    27    28    1
    21    28    29   ar
    22    29    30   ar
    23    30    31   ar
    24    31    32   ar
    25    32    33   ar
    26    32    34    1
    27    34    35   am
    28    35    36    2
    29    35    37    1
    30    37    38    1
    31     4     5    1
    32     5     6    1
    33    20    21   ar
    34    21    22   ar
    35    22    12   ar
    36    21    15   ar
    37     6     1    1
    38    33    28   ar
    39    38    31    1
    40     8     9    1
    41     8    10    1
    42    25    26    1
    43    34    39    1
@<TRIPOS>MOLECULE
*****
 39 43 0 0 0
SMALL
GASTEIGER

@<TRIPOS>ATOM
      1 C         143.4370  142.2148  164.0528 C.3     1  UNL1        0.0162
      2 C         142.4114  142.7833  164.9881 C.3     1  UNL1        0.0028
      3 C         141.6799  144.0413  164.6241 C.3     1  UNL1        0.0158
      4 C         141.9741  144.7307  163.3249 C.3     1  UNL1        0.0543
      5 C         142.9998  144.1622  162.3896 C.3     1  UNL1        0.0158
      6 C         143.7313  142.9042  162.7536 C.3     1  UNL1        0.0028
      7 C         144.1685  140.9568  164.4168 C.3     1  UNL1        0.0737
      8 N         145.5748  140.7425  163.9411 N.3     1  UNL1       -0.3206
      9 H         145.8726  141.5459  163.3876 H       1  UNL1        0.1189
     10 H         145.6149  139.9004  163.3669 H       1  UNL1        0.1189
     11 C         143.4936  139.9131  165.2566 C.3     1  UNL1        0.1244
     12 C         139.5751  139.8172  167.4671 C.ar    1  UNL1        0.1402
     13 C         138.4193  139.0394  166.9112 C.ar    1  UNL1        0.0370
     14 C         138.5696  138.2936  165.6185 C.ar    1  UNL1        0.0045
     15 C         139.8758  138.3255  164.8817 C.ar    1  UNL1        0.0162
     16 C         140.0261  137.5797  163.5890 C.ar    1  UNL1        0.0063
     17 C         141.3322  137.6116  162.8521 C.ar    1  UNL1        0.0608
     18 C         142.4881  138.3895  163.4080 C.ar    1  UNL1        0.2610
     19 O         143.7942  138.4214  162.6712 O.2     1  UNL1       -0.2670
     20 N         142.3378  139.1353  164.7007 N.ar    1  UNL1       -0.2940
     21 C         141.0316  139.1033  165.4376 C.ar    1  UNL1        0.0655
     22 C         140.8813  139.8492  166.7303 C.ar    1  UNL1        0.0541
     23 C         140.1868  141.8354  168.9846 C.3     1  UNL1        0.2525
     24 O         139.4248  140.5631  168.7598 O.3     1  UNL1       -0.4714
     25 N         141.2427  145.9887  162.9609 N.3     1  UNL1       -0.2922
     26 H         141.8824  146.5487  162.3974 H       1  UNL1        0.1236
     27 C         139.9509  145.9123  162.2022 C.3     1  UNL1        0.1353
     28 C         139.2581  144.5930  162.0318 C.ar    1  UNL1        0.1567
     29 N         138.3616  144.0712  163.1153 N.ar    1  UNL1       -0.2245
     30 C         137.6687  142.7518  162.9450 C.ar    1  UNL1        0.1400
     31 C         137.8722  141.9541  161.6911 C.ar    1  UNL1        0.1898
     32 C         138.7688  142.4759  160.6075 C.ar    1  UNL1        0.1715
     33 N         139.4616  143.7953  160.7779 N.ar    1  UNL1       -0.2113
     34 N         138.9724  141.6782  159.3536 N.am    1  UNL1       -0.2638
     35 C         138.2794  140.3588  159.1833 C.2     1  UNL1        0.2718
     36 O         138.4830  139.5611  157.9293 O.2     1  UNL1       -0.2707
     37 C         137.3830  139.8370  160.2668 C.3     1  UNL1        0.2899
     38 O         137.1794  140.6347  161.5207 O.3     1  UNL1       -0.4612
     39 H         139.5608  142.0207  158.6424 H       1  UNL1        0.1565
@<TRIPOS>BOND
     1    23    24    1
     2    24    12    1
     3    12    13   ar
     4    13    14   ar
     5    14    15   ar
     6    15    16   ar
     7    16    17   ar
     8    17    18   ar
     9    18    19    2
    10    18    20   ar
    11    20    11    1
    12    11     7    1
    13     7     8    1
    14     7     1    1
    15     1     2    1
    16     2     3    1
    17     3     4    1
    18     4    25    1
    19    25    27    1
    20    27    28    1
    21    28    29   ar
    22    29    30   ar
    23    30    31   ar
    24    31    32   ar
    25    32    33   ar
    26    32    34    1
    27    34    35   am
    28    35    36    2
    29    35    37    1
    30    37    38    1
    31     4     5    1
    32     5     6    1
    33    20    21   ar
    34    21    22   ar
    35    22    12   ar
    36    21    15   ar
    37     6     1    1
    38    33    28   ar
    39    38    31    1
    40     8     9    1
    41     8    10    1
    42    25    26    1
    43    34    39    1
@<TRIPOS>MOLECULE
*****
 39 43 0 0 0
SMALL
GASTEIGER

@<TRIPOS>ATOM
      1 C         142.9899  141.3364  166.4647 C.3     1  UNL1        0.0162
      2 C         143.4023  142.1163  165.2515 C.3     1  UNL1        0.0028
      3 C         143.9434  141.4018  164.0488 C.3     1  UNL1        0.0158
      4 C         144.0722  139.9075  164.0592 C.3     1  UNL1        0.0543
      5 C         143.6599  139.1276  165.2723 C.3     1  UNL1        0.0158
      6 C         143.1187  139.8420  166.4751 C.3     1  UNL1        0.0028
      7 C         142.4487  142.0510  167.6674 C.3     1  UNL1        0.0737
      8 N         143.3834  142.5326  168.7372 N.3     1  UNL1       -0.3206
      9 H         144.3418  142.2910  168.4853 H       1  UNL1        0.1189
     10 H         143.1428  142.0892  169.6237 H       1  UNL1        0.1189
     11 C         140.9729  142.2839  167.8004 C.3     1  UNL1        0.1244
     12 C         139.2409  143.8068  163.9363 C.ar    1  UNL1        0.1402
     13 C         138.2752  142.9597  163.1619 C.ar    1  UNL1        0.0370
     14 C         137.8868  141.6050  163.6755 C.ar    1  UNL1        0.0045
     15 C         138.4641  141.0974  164.9635 C.ar    1  UNL1        0.0162
     16 C         138.0757  139.7426  165.4771 C.ar    1  UNL1        0.0063
     17 C         138.6530  139.2350  166.7651 C.ar    1  UNL1        0.0608
     18 C         139.6187  140.0821  167.5396 C.ar    1  UNL1        0.2610
     19 O         140.1960  139.5744  168.8276 O.2     1  UNL1       -0.2670
     20 N         140.0072  141.4368  167.0260 N.ar    1  UNL1       -0.2940
     21 C         139.4298  141.9445  165.7379 C.ar    1  UNL1        0.0655
     22 C         139.8182  143.2992  165.2243 C.ar    1  UNL1        0.0541
     23 C         139.7576  145.3957  161.9467 C.3     1  UNL1        0.2525
     24 O         139.6294  145.1616  163.4227 O.3     1  UNL1       -0.4714
     25 N         144.6134  139.1929  162.8564 N.3     1  UNL1       -0.2922
     26 H         145.4928  138.7616  163.1411 H       1  UNL1        0.1236
     27 C         143.8007  138.1214  162.1920 C.3     1  UNL1        0.1353
     28 C         142.3215  138.3006  162.0190 C.ar    1  UNL1        0.1567
     29 N         141.3682  137.5965  162.9383 N.ar    1  UNL1       -0.2245
     30 C         139.8890  137.7757  162.7653 C.ar    1  UNL1        0.1400
     31 C         139.3632  138.6591  161.6730 C.ar    1  UNL1        0.1898
     32 C         140.3166  139.3633  160.7537 C.ar    1  UNL1        0.1715
     33 N         141.7958  139.1840  160.9267 N.ar    1  UNL1       -0.2113
     34 N         139.7908  140.2466  159.6613 N.am    1  UNL1       -0.2638
     35 C         138.3116  140.4258  159.4884 C.2     1  UNL1        0.2718
     36 O         137.7858  141.3092  158.3961 O.2     1  UNL1       -0.2707
     37 C         137.3582  139.7217  160.4077 C.3     1  UNL1        0.2899
     38 O         137.8840  138.8383  161.5000 O.3     1  UNL1       -0.4612
     39 H         140.4166  140.7088  159.0579 H       1  UNL1        0.1565
@<TRIPOS>BOND
     1    23    24    1
     2    24    12    1
     3    12    13   ar
     4    13    14   ar
     5    14    15   ar
     6    15    16   ar
     7    16    17   ar
     8    17    18   ar
     9    18    19    2
    10    18    20   ar
    11    20    11    1
    12    11     7    1
    13     7     8    1
    14     7     1    1
    15     1     2    1
    16     2     3    1
    17     3     4    1
    18     4    25    1
    19    25    27    1
    20    27    28    1
    21    28    29   ar
    22    29    30   ar
    23    30    31   ar
    24    31    32   ar
    25    32    33   ar
    26    32    34    1
    27    34    35   am
    28    35    36    2
    29    35    37    1
    30    37    38    1
    31     4     5    1
    32     5     6    1
    33    20    21   ar
    34    21    22   ar
    35    22    12   ar
    36    21    15   ar
    37     6     1    1
    38    33    28   ar
    39    38    31    1
    40     8     9    1
    41     8    10    1
    42    25    26    1
    43    34    39    1
@<TRIPOS>MOLECULE
*****
 39 43 0 0 0
SMALL
GASTEIGER

@<TRIPOS>ATOM
      1 C         138.1553  140.0707  162.7936 C.3     1  UNL1        0.0162
      2 C         138.2179  140.7804  161.4736 C.3     1  UNL1        0.0028
      3 C         138.0406  142.2686  161.4130 C.3     1  UNL1        0.0158
      4 C         137.8008  143.0471  162.6725 C.3     1  UNL1        0.0543
      5 C         137.7382  142.3375  163.9925 C.3     1  UNL1        0.0158
      6 C         137.9155  140.8493  164.0531 C.3     1  UNL1        0.0028
      7 C         138.3326  138.5824  162.8542 C.3     1  UNL1        0.0737
      8 N         137.7803  137.7162  161.7612 N.3     1  UNL1       -0.3206
      9 H         137.3194  138.3010  161.0640 H       1  UNL1        0.1189
     10 H         137.1052  137.0608  162.1551 H       1  UNL1        0.1189
     11 C         139.0622  137.9603  164.0077 C.3     1  UNL1        0.1244
     12 C         140.2375  139.9250  167.8818 C.ar    1  UNL1        0.1402
     13 C         141.6727  140.2769  168.1391 C.ar    1  UNL1        0.0370
     14 C         142.7162  139.9739  167.1050 C.ar    1  UNL1        0.0045
     15 C         142.3245  139.3190  165.8136 C.ar    1  UNL1        0.0162
     16 C         143.3680  139.0161  164.7795 C.ar    1  UNL1        0.0063
     17 C         142.9762  138.3612  163.4882 C.ar    1  UNL1        0.0608
     18 C         141.5409  138.0092  163.2309 C.ar    1  UNL1        0.2610
     19 O         141.1492  137.3544  161.9395 O.2     1  UNL1       -0.2670
     20 N         140.4974  138.3122  164.2650 N.ar    1  UNL1       -0.2940
     21 C         140.8892  138.9671  165.5564 C.ar    1  UNL1        0.0655
     22 C         139.8458  139.2701  166.5905 C.ar    1  UNL1        0.0541
     23 C         139.4874  141.2082  170.0127 C.3     1  UNL1        0.2525
     24 O         139.1940  140.2279  168.9159 O.3     1  UNL1       -0.4714
     25 N         137.6235  144.5355  162.6120 N.3     1  UNL1       -0.2922
     26 H         137.1671  144.8132  163.4808 H       1  UNL1        0.1236
     27 C         138.8184  145.4269  162.4464 C.3     1  UNL1        0.1353
     28 C         140.0924  144.8757  161.8780 C.ar    1  UNL1        0.1567
     29 N         140.3400  144.9315  160.3997 N.ar    1  UNL1       -0.2245
     30 C         141.6140  144.3803  159.8312 C.ar    1  UNL1        0.1400
     31 C         142.6404  143.7733  160.7411 C.ar    1  UNL1        0.1898
     32 C         142.3928  143.7175  162.2196 C.ar    1  UNL1        0.1715
     33 N         141.1188  144.2687  162.7880 N.ar    1  UNL1       -0.2113
     34 N         143.4192  143.1105  163.1295 N.am    1  UNL1       -0.2638
     35 C         144.6933  142.5593  162.5610 C.2     1  UNL1        0.2718
     36 O         145.7197  141.9523  163.4710 O.2     1  UNL1       -0.2707
     37 C         144.9408  142.6151  161.0827 C.3     1  UNL1        0.2899
     38 O         143.9144  143.2221  160.1727 O.3     1  UNL1       -0.4612
     39 H         143.2568  143.0739  164.0998 H       1  UNL1        0.1565
@<TRIPOS>BOND
     1    23    24    1
     2    24    12    1
     3    12    13   ar
     4    13    14   ar
     5    14    15   ar
     6    15    16   ar
     7    16    17   ar
     8    17    18   ar
     9    18    19    2
    10    18    20   ar
    11    20    11    1
    12    11     7    1
    13     7     8    1
    14     7     1    1
    15     1     2    1
    16     2     3    1
    17     3     4    1
    18     4    25    1
    19    25    27    1
    20    27    28    1
    21    28    29   ar
    22    29    30   ar
    23    30    31   ar
    24    31    32   ar
    25    32    33   ar
    26    32    34    1
    27    34    35   am
    28    35    36    2
    29    35    37    1
    30    37    38    1
    31     4     5    1
    32     5     6    1
    33    20    21   ar
    34    21    22   ar
    35    22    12   ar
    36    21    15   ar
    37     6     1    1
    38    33    28   ar
    39    38    31    1
    40     8     9    1
    41     8    10    1
    42    25    26    1
    43    34    39    1
@<TRIPOS>MOLECULE
*****
 39 43 0 0 0
SMALL
GASTEIGER

@<TRIPOS>ATOM
      1 C         138.2484  140.3092  164.4995 C.3     1  UNL1        0.0162
      2 C         137.5906  140.4586  163.1597 C.3     1  UNL1        0.0028
      3 C         137.4028  141.8224  162.5643 C.3     1  UNL1        0.0158
      4 C         137.8728  143.0369  163.3086 C.3     1  UNL1        0.0543
      5 C         138.5306  142.8876  164.6484 C.3     1  UNL1        0.0158
      6 C         138.7184  141.5237  165.2438 C.3     1  UNL1        0.0028
      7 C         138.4362  138.9453  165.0950 C.3     1  UNL1        0.0737
      8 N         137.9795  138.6696  166.4969 N.3     1  UNL1       -0.3206
      9 H         137.5679  139.5148  166.8928 H       1  UNL1        0.1189
     10 H         138.7771  138.3821  167.0640 H       1  UNL1        0.1189
     11 C         139.0806  137.8571  164.2885 C.3     1  UNL1        0.1244
     12 C         143.1323  138.7330  166.0397 C.ar    1  UNL1        0.1402
     13 C         144.2866  139.0522  165.1366 C.ar    1  UNL1        0.0370
     14 C         144.0904  139.0793  163.6497 C.ar    1  UNL1        0.0045
     15 C         142.7399  138.7874  163.0660 C.ar    1  UNL1        0.0162
     16 C         142.5437  138.8145  161.5791 C.ar    1  UNL1        0.0063
     17 C         141.1931  138.5226  160.9954 C.ar    1  UNL1        0.0608
     18 C         140.0387  138.2034  161.8985 C.ar    1  UNL1        0.2610
     19 O         138.6882  137.9114  161.3148 O.2     1  UNL1       -0.2670
     20 N         140.2349  138.1762  163.3854 N.ar    1  UNL1       -0.2940
     21 C         141.5856  138.4682  163.9691 C.ar    1  UNL1        0.0655
     22 C         141.7818  138.4411  165.4560 C.ar    1  UNL1        0.0541
     23 C         142.5325  139.6249  168.4050 C.3     1  UNL1        0.2525
     24 O         143.3285  138.7059  167.5266 O.3     1  UNL1       -0.4714
     25 N         137.6851  144.4008  162.7131 N.3     1  UNL1       -0.2922
     26 H         137.0689  144.9148  163.3429 H       1  UNL1        0.1236
     27 C         138.8746  145.2786  162.4592 C.3     1  UNL1        0.1353
     28 C         140.0692  144.7319  161.7354 C.ar    1  UNL1        0.1567
     29 N         140.1329  144.7959  160.2381 N.ar    1  UNL1       -0.2245
     30 C         141.3276  144.2493  159.5142 C.ar    1  UNL1        0.1400
     31 C         142.4585  143.6386  160.2875 C.ar    1  UNL1        0.1898
     32 C         142.3948  143.5746  161.7849 C.ar    1  UNL1        0.1715
     33 N         141.2002  144.1213  162.5087 N.ar    1  UNL1       -0.2113
     34 N         143.5257  142.9639  162.5582 N.am    1  UNL1       -0.2638
     35 C         144.7203  142.4173  161.8342 C.2     1  UNL1        0.2718
     36 O         145.8513  141.8066  162.6076 O.2     1  UNL1       -0.2707
     37 C         144.7840  142.4813  160.3370 C.3     1  UNL1        0.2899
     38 O         143.6531  143.0919  159.5636 O.3     1  UNL1       -0.4612
     39 H         143.4839  142.9219  163.5409 H       1  UNL1        0.1565
@<TRIPOS>BOND
     1    23    24    1
     2    24    12    1
     3    12    13   ar
     4    13    14   ar
     5    14    15   ar
     6    15    16   ar
     7    16    17   ar
     8    17    18   ar
     9    18    19    2
    10    18    20   ar
    11    20    11    1
    12    11     7    1
    13     7     8    1
    14     7     1    1
    15     1     2    1
    16     2     3    1
    17     3     4    1
    18     4    25    1
    19    25    27    1
    20    27    28    1
    21    28    29   ar
    22    29    30   ar
    23    30    31   ar
    24    31    32   ar
    25    32    33   ar
    26    32    34    1
    27    34    35   am
    28    35    36    2
    29    35    37    1
    30    37    38    1
    31     4     5    1
    32     5     6    1
    33    20    21   ar
    34    21    22   ar
    35    22    12   ar
    36    21    15   ar
    37     6     1    1
    38    33    28   ar
    39    38    31    1
    40     8     9    1
    41     8    10    1
    42    25    26    1
    43    34    39    1
@<TRIPOS>MOLECULE
*****
 39 43 0 0 0
SMALL
GASTEIGER

@<TRIPOS>ATOM
      1 C         143.8501  142.6694  162.5193 C.3     1  UNL1        0.0162
      2 C         143.7396  143.6290  163.6670 C.3     1  UNL1        0.0028
      3 C         142.7225  144.7307  163.6282 C.3     1  UNL1        0.0158
      4 C         141.8158  144.8729  162.4418 C.3     1  UNL1        0.0543
      5 C         141.9262  143.9134  161.2942 C.3     1  UNL1        0.0158
      6 C         142.9433  142.8116  161.3329 C.3     1  UNL1        0.0028
      7 C         144.8673  141.5676  162.5581 C.3     1  UNL1        0.0737
      8 N         146.2728  141.8595  162.9932 N.3     1  UNL1       -0.3206
      9 H         146.3586  142.8493  163.2242 H       1  UNL1        0.1189
     10 H         146.9175  141.6297  162.2370 H       1  UNL1        0.1189
     11 C         144.4789  140.1741  162.1618 C.3     1  UNL1        0.1244
     12 C         140.4975  138.8896  160.5039 C.ar    1  UNL1        0.1402
     13 C         139.5474  138.1041  161.3584 C.ar    1  UNL1        0.0370
     14 C         139.9245  137.7467  162.7656 C.ar    1  UNL1        0.0045
     15 C         141.2516  138.1748  163.3182 C.ar    1  UNL1        0.0162
     16 C         141.6286  137.8174  164.7254 C.ar    1  UNL1        0.0063
     17 C         142.9557  138.2456  165.2781 C.ar    1  UNL1        0.0608
     18 C         143.9059  139.0312  164.4235 C.ar    1  UNL1        0.2610
     19 O         145.2330  139.4593  164.9761 O.2     1  UNL1       -0.2670
     20 N         143.5288  139.3885  163.0163 N.ar    1  UNL1       -0.2940
     21 C         142.2016  138.9603  162.4637 C.ar    1  UNL1        0.0655
     22 C         141.8246  139.3177  161.0565 C.ar    1  UNL1        0.0541
     23 C         138.7863  139.8710  158.8132 C.3     1  UNL1        0.2525
     24 O         140.1205  139.2470  159.0967 O.3     1  UNL1       -0.4714
     25 N         140.7986  145.9747  162.4030 N.3     1  UNL1       -0.2922
     26 H         140.8558  146.3958  161.4758 H       1  UNL1        0.1236
     27 C         139.3513  145.6683  162.6509 C.3     1  UNL1        0.1353
     28 C         138.9360  144.2847  163.0547 C.ar    1  UNL1        0.1567
     29 N         138.0025  143.4976  162.1835 N.ar    1  UNL1       -0.2245
     30 C         137.5873  142.1138  162.5873 C.ar    1  UNL1        0.1400
     31 C         138.1055  141.5173  163.8623 C.ar    1  UNL1        0.1898
     32 C         139.0391  142.3045  164.7335 C.ar    1  UNL1        0.1715
     33 N         139.4543  143.6881  164.3297 N.ar    1  UNL1       -0.2113
     34 N         139.5573  141.7080  166.0084 N.am    1  UNL1       -0.2638
     35 C         139.1421  140.3243  166.4122 C.2     1  UNL1        0.2718
     36 O         139.6603  139.7278  167.6872 O.2     1  UNL1       -0.2707
     37 C         138.2086  139.5372  165.5411 C.3     1  UNL1        0.2899
     38 O         137.6903  140.1337  164.2661 O.3     1  UNL1       -0.4612
     39 H         140.1700  142.2246  166.5802 H       1  UNL1        0.1565
@<TRIPOS>BOND
     1    23    24    1
     2    24    12    1
     3    12    13   ar
     4    13    14   ar
     5    14    15   ar
     6    15    16   ar
     7    16    17   ar
     8    17    18   ar
     9    18    19    2
    10    18    20   ar
    11    20    11    1
    12    11     7    1
    13     7     8    1
    14     7     1    1
    15     1     2    1
    16     2     3    1
    17     3     4    1
    18     4    25    1
    19    25    27    1
    20    27    28    1
    21    28    29   ar
    22    29    30   ar
    23    30    31   ar
    24    31    32   ar
    25    32    33   ar
    26    32    34    1
    27    34    35   am
    28    35    36    2
    29    35    37    1
    30    37    38    1
    31     4     5    1
    32     5     6    1
    33    20    21   ar
    34    21    22   ar
    35    22    12   ar
    36    21    15   ar
    37     6     1    1
    38    33    28   ar
    39    38    31    1
    40     8     9    1
    41     8    10    1
    42    25    26    1
    43    34    39    1
@<TRIPOS>MOLECULE
*****
 39 43 0 0 0
SMALL
GASTEIGER

@<TRIPOS>ATOM
      1 C         139.3209  137.9585  164.7387 C.3     1  UNL1        0.0162
      2 C         138.8610  137.9008  163.3121 C.3     1  UNL1        0.0028
      3 C         139.8642  137.7623  162.2057 C.3     1  UNL1        0.0158
      4 C         141.3274  137.6815  162.5258 C.3     1  UNL1        0.0543
      5 C         141.7873  137.7391  163.9524 C.3     1  UNL1        0.0158
      6 C         140.7841  137.8776  165.0588 C.3     1  UNL1        0.0028
      7 C         138.3175  138.0970  165.8451 C.3     1  UNL1        0.0737
      8 N         137.6924  136.8741  166.4481 N.3     1  UNL1       -0.3206
      9 H         138.0620  136.0417  165.9889 H       1  UNL1        0.1189
     10 H         136.6810  136.9115  166.3213 H       1  UNL1        0.1189
     11 C         137.9394  139.4584  166.3486 C.3     1  UNL1        0.1244
     12 C         138.5233  142.4809  163.0663 C.ar    1  UNL1        0.1402
     13 C         139.5698  143.5464  163.2054 C.ar    1  UNL1        0.0370
     14 C         140.4217  143.6045  164.4387 C.ar    1  UNL1        0.0045
     15 C         140.2271  142.5970  165.5328 C.ar    1  UNL1        0.0162
     16 C         141.0790  142.6551  166.7660 C.ar    1  UNL1        0.0063
     17 C         140.8843  141.6476  167.8601 C.ar    1  UNL1        0.0608
     18 C         139.8378  140.5820  167.7210 C.ar    1  UNL1        0.2610
     19 O         139.6431  139.5746  168.8151 O.2     1  UNL1       -0.2670
     20 N         138.9859  140.5240  166.4877 N.ar    1  UNL1       -0.2940
     21 C         139.1806  141.5315  165.3936 C.ar    1  UNL1        0.0655
     22 C         138.3287  141.4734  164.1603 C.ar    1  UNL1        0.0541
     23 C         138.3141  142.3160  160.4819 C.3     1  UNL1        0.2525
     24 O         137.6715  142.4228  161.8330 O.3     1  UNL1       -0.4714
     25 N         142.3307  137.5429  161.4194 N.3     1  UNL1       -0.2922
     26 H         142.1333  136.6581  160.9519 H       1  UNL1        0.1236
     27 C         142.4150  138.5894  160.3480 C.3     1  UNL1        0.1353
     28 C         142.5930  140.0314  160.7204 C.ar    1  UNL1        0.1567
     29 N         142.1809  141.1098  159.7626 N.ar    1  UNL1       -0.2245
     30 C         142.3589  142.5519  160.1351 C.ar    1  UNL1        0.1400
     31 C         142.9490  142.9156  161.4653 C.ar    1  UNL1        0.1898
     32 C         143.3611  141.8372  162.4231 C.ar    1  UNL1        0.1715
     33 N         143.1831  140.3952  162.0506 N.ar    1  UNL1       -0.2113
     34 N         143.9512  142.2010  163.7533 N.am    1  UNL1       -0.2638
     35 C         144.1292  143.6431  164.1257 C.2     1  UNL1        0.2718
     36 O         144.7192  144.0068  165.4560 O.2     1  UNL1       -0.2707
     37 C         143.7171  144.7214  163.1680 C.3     1  UNL1        0.2899
     38 O         143.1270  144.3577  161.8377 O.3     1  UNL1       -0.4612
     39 H         144.2216  141.4932  164.3820 H       1  UNL1        0.1565
@<TRIPOS>BOND
     1    23    24    1
     2    24    12    1
     3    12    13   ar
     4    13    14   ar
     5    14    15   ar
     6    15    16   ar
     7    16    17   ar
     8    17    18   ar
     9    18    19    2
    10    18    20   ar
    11    20    11    1
    12    11     7    1
    13     7     8    1
    14     7     1    1
    15     1     2    1
    16     2     3    1
    17     3     4    1
    18     4    25    1
    19    25    27    1
    20    27    28    1
    21    28    29   ar
    22    29    30   ar
    23    30    31   ar
    24    31    32   ar
    25    32    33   ar
    26    32    34    1
    27    34    35   am
    28    35    36    2
    29    35    37    1
    30    37    38    1
    31     4     5    1
    32     5     6    1
    33    20    21   ar
    34    21    22   ar
    35    22    12   ar
    36    21    15   ar
    37     6     1    1
    38    33    28   ar
    39    38    31    1
    40     8     9    1
    41     8    10    1
    42    25    26    1
    43    34    39    1
@<TRIPOS>MOLECULE
*****
 39 43 0 0 0
SMALL
GASTEIGER

@<TRIPOS>ATOM
      1 C         139.2936  137.9318  164.7110 C.3     1  UNL1        0.0162
      2 C         140.7444  137.6783  164.9952 C.3     1  UNL1        0.0028
      3 C         141.7081  137.4851  163.8621 C.3     1  UNL1        0.0158
      4 C         141.2209  137.5454  162.4448 C.3     1  UNL1        0.0543
      5 C         139.7700  137.7988  162.1605 C.3     1  UNL1        0.0158
      6 C         138.8064  137.9920  163.2936 C.3     1  UNL1        0.0028
      7 C         138.3299  138.1250  165.8442 C.3     1  UNL1        0.0737
      8 N         137.6683  136.9368  166.4769 N.3     1  UNL1       -0.3206
      9 H         137.9868  136.0846  166.0157 H       1  UNL1        0.1189
     10 H         136.6563  137.0187  166.3786 H       1  UNL1        0.1189
     11 C         138.0279  139.5064  166.3446 C.3     1  UNL1        0.1244
     12 C         141.5669  140.1173  169.0560 C.ar    1  UNL1        0.1402
     13 C         142.5291  141.2374  168.7925 C.ar    1  UNL1        0.0370
     14 C         142.3115  142.1540  167.6252 C.ar    1  UNL1        0.0045
     15 C         141.1319  141.9504  166.7214 C.ar    1  UNL1        0.0162
     16 C         140.9144  142.8670  165.5541 C.ar    1  UNL1        0.0063
     17 C         139.7347  142.6634  164.6503 C.ar    1  UNL1        0.0608
     18 C         138.7725  141.5432  164.9138 C.ar    1  UNL1        0.2610
     19 O         137.5929  141.3396  164.0100 O.2     1  UNL1       -0.2670
     20 N         138.9900  140.6266  166.0811 N.ar    1  UNL1       -0.2940
     21 C         140.1697  140.8302  166.9849 C.ar    1  UNL1        0.0655
     22 C         140.3873  139.9137  168.1522 C.ar    1  UNL1        0.0541
     23 C         142.9147  138.2149  170.2024 C.3     1  UNL1        0.2525
     24 O         141.7844  139.2007  170.2233 O.3     1  UNL1       -0.4714
     25 N         142.1846  137.3522  161.3116 N.3     1  UNL1       -0.2922
     26 H         141.7577  136.6809  160.6732 H       1  UNL1        0.1236
     27 C         142.6123  138.5267  160.4823 C.3     1  UNL1        0.1353
     28 C         142.9940  139.8155  161.1480 C.ar    1  UNL1        0.1567
     29 N         144.3288  139.9462  161.8196 N.ar    1  UNL1       -0.2245
     30 C         144.7104  141.2351  162.4853 C.ar    1  UNL1        0.1400
     31 C         143.7573  142.3933  162.4793 C.ar    1  UNL1        0.1898
     32 C         142.4224  142.2626  161.8076 C.ar    1  UNL1        0.1715
     33 N         142.0408  140.9737  161.1420 N.ar    1  UNL1       -0.2113
     34 N         141.4692  143.4208  161.8016 N.am    1  UNL1       -0.2638
     35 C         141.8509  144.7097  162.4673 C.2     1  UNL1        0.2718
     36 O         140.8977  145.8679  162.4613 O.2     1  UNL1       -0.2707
     37 C         143.1857  144.8404  163.1390 C.3     1  UNL1        0.2899
     38 O         144.1389  143.6822  163.1450 O.3     1  UNL1       -0.4612
     39 H         140.5931  143.3350  161.3608 H       1  UNL1        0.1565
@<TRIPOS>BOND
     1    23    24    1
     2    24    12    1
     3    12    13   ar
     4    13    14   ar
     5    14    15   ar
     6    15    16   ar
     7    16    17   ar
     8    17    18   ar
     9    18    19    2
    10    18    20   ar
    11    20    11    1
    12    11     7    1
    13     7     8    1
    14     7     1    1
    15     1     2    1
    16     2     3    1
    17     3     4    1
    18     4    25    1
    19    25    27    1
    20    27    28    1
    21    28    29   ar
    22    29    30   ar
    23    30    31   ar
    24    31    32   ar
    25    32    33   ar
    26    32    34    1
    27    34    35   am
    28    35    36    2
    29    35    37    1
    30    37    38    1
    31     4     5    1
    32     5     6    1
    33    20    21   ar
    34    21    22   ar
    35    22    12   ar
    36    21    15   ar
    37     6     1    1
    38    33    28   ar
    39    38    31    1
    40     8     9    1
    41     8    10    1
    42    25    26    1
    43    34    39    1
@<TRIPOS>MOLECULE
*****
 39 43 0 0 0
SMALL
GASTEIGER

@<TRIPOS>ATOM
      1 C         141.5846  142.5950  166.4483 C.3     1  UNL1        0.0162
      2 C         140.2160  143.0893  166.8123 C.3     1  UNL1        0.0028
      3 C         139.4371  143.9248  165.8402 C.3     1  UNL1        0.0158
      4 C         140.0269  144.2662  164.5039 C.3     1  UNL1        0.0543
      5 C         141.3956  143.7719  164.1399 C.3     1  UNL1        0.0158
      6 C         142.1744  142.9364  165.1120 C.3     1  UNL1        0.0028
      7 C         142.3635  141.7594  167.4205 C.3     1  UNL1        0.0737
      8 N         143.3385  142.4105  168.3562 N.3     1  UNL1       -0.3206
      9 H         143.3438  143.4176  168.1948 H       1  UNL1        0.1189
     10 H         144.2720  142.0346  168.1900 H       1  UNL1        0.1189
     11 C         142.1672  140.2728  167.4571 C.3     1  UNL1        0.1244
     12 C         142.2853  138.2960  163.4163 C.ar    1  UNL1        0.1402
     13 C         141.0397  137.6895  162.8414 C.ar    1  UNL1        0.0370
     14 C         139.7547  137.7420  163.6134 C.ar    1  UNL1        0.0045
     15 C         139.7153  138.4009  164.9603 C.ar    1  UNL1        0.0162
     16 C         138.4303  138.4533  165.7324 C.ar    1  UNL1        0.0063
     17 C         138.3909  139.1122  167.0793 C.ar    1  UNL1        0.0608
     18 C         139.6366  139.7188  167.6542 C.ar    1  UNL1        0.2610
     19 O         139.5972  140.3777  169.0012 O.2     1  UNL1       -0.2670
     20 N         140.9216  139.6663  166.8822 N.ar    1  UNL1       -0.2940
     21 C         140.9609  139.0073  165.5352 C.ar    1  UNL1        0.0655
     22 C         142.2459  138.9549  164.7632 C.ar    1  UNL1        0.0541
     23 C         144.0088  139.4288  161.8364 C.3     1  UNL1        0.2525
     24 O         143.5703  138.2435  162.6443 O.3     1  UNL1       -0.4714
     25 N         139.2481  145.1018  163.5316 N.3     1  UNL1       -0.2922
     26 H         139.9138  145.4454  162.8394 H       1  UNL1        0.1236
     27 C         138.1052  144.4976  162.7708 C.3     1  UNL1        0.1353
     28 C         138.2328  143.1180  162.1961 C.ar    1  UNL1        0.1567
     29 N         137.3683  142.0070  162.7140 N.ar    1  UNL1       -0.2245
     30 C         137.4958  140.6272  162.1393 C.ar    1  UNL1        0.1400
     31 C         138.4878  140.3586  161.0467 C.ar    1  UNL1        0.1898
     32 C         139.3523  141.4697  160.5288 C.ar    1  UNL1        0.1715
     33 N         139.2248  142.8494  161.1035 N.ar    1  UNL1       -0.2113
     34 N         140.3443  141.2011  159.4363 N.am    1  UNL1       -0.2638
     35 C         140.4719  139.8214  158.8616 C.2     1  UNL1        0.2718
     36 O         141.4639  139.5528  157.7690 O.2     1  UNL1       -0.2707
     37 C         139.6074  138.7104  159.3794 C.3     1  UNL1        0.2899
     38 O         138.6154  138.9790  160.4720 O.3     1  UNL1       -0.4612
     39 H         140.9117  141.9304  159.0963 H       1  UNL1        0.1565
@<TRIPOS>BOND
     1    23    24    1
     2    24    12    1
     3    12    13   ar
     4    13    14   ar
     5    14    15   ar
     6    15    16   ar
     7    16    17   ar
     8    17    18   ar
     9    18    19    2
    10    18    20   ar
    11    20    11    1
    12    11     7    1
    13     7     8    1
    14     7     1    1
    15     1     2    1
    16     2     3    1
    17     3     4    1
    18     4    25    1
    19    25    27    1
    20    27    28    1
    21    28    29   ar
    22    29    30   ar
    23    30    31   ar
    24    31    32   ar
    25    32    33   ar
    26    32    34    1
    27    34    35   am
    28    35    36    2
    29    35    37    1
    30    37    38    1
    31     4     5    1
    32     5     6    1
    33    20    21   ar
    34    21    22   ar
    35    22    12   ar
    36    21    15   ar
    37     6     1    1
    38    33    28   ar
    39    38    31    1
    40     8     9    1
    41     8    10    1
    42    25    26    1
    43    34    39    1
