@<TRIPOS>MOLECULE
*****
 29 32 0 0 0
SMALL
GASTEIGER

@<TRIPOS>ATOM
      1 C         140.4083  139.1490  164.9886 C.ar    1  UNL1        0.0351
      2 C         140.8498  137.7230  164.8424 C.ar    1  UNL1        0.0030
      3 C         141.0582  137.1387  163.4768 C.ar    1  UNL1        0.0003
      4 C         140.8251  137.9804  162.2573 C.ar    1  UNL1        0.0063
      5 C         140.3835  139.4064  162.4035 C.ar    1  UNL1        0.0740
      6 C         140.1504  140.2481  161.1840 C.ar    1  UNL1        0.2643
      7 O         140.3587  139.6638  159.8183 O.2     1  UNL1       -0.2668
      8 N         139.7088  141.6742  161.3302 N.ar    1  UNL1       -0.2669
      9 C         139.4757  142.5159  160.1107 C.3     1  UNL1        0.1363
     10 C         139.5004  142.2586  162.6959 C.ar    1  UNL1        0.2000
     11 N         139.7336  141.4168  163.9154 N.ar    1  UNL1       -0.2150
     12 C         140.1751  139.9907  163.7692 C.ar    1  UNL1        0.0901
     13 C         141.6177  143.0418  169.7663 C.3     1  UNL1        0.0237
     14 C         140.6008  141.9574  169.5661 C.3     1  UNL1        0.0985
     15 N         139.5587  141.5320  170.5575 N.am    1  UNL1       -0.3004
     16 C         138.7614  140.4196  169.9434 C.2     1  UNL1        0.2438
     17 O         137.6158  139.6963  170.5872 O.2     1  UNL1       -0.2704
     18 C         139.3108  140.1575  168.5725 C.2     1  UNL1        0.0563
     19 C         139.1577  139.3080  167.3458 C.2     1  UNL1        0.0209
     20 C         140.1999  139.7334  166.3544 C.2     1  UNL1        0.0777
     21 N         140.9972  140.8458  166.9684 N.2     1  UNL1       -0.2660
     22 C         140.4477  141.1079  168.3393 C.3     1  UNL1        0.1476
     23 H         139.4219  141.9155  171.4538 H       1  UNL1        0.1498
     24 N         139.0589  143.6846  162.8421 N.pl3   1  UNL1       -0.3074
     25 H         138.8477  144.2189  162.0427 H       1  UNL1        0.1495
     26 C         138.9392  144.2966  164.2064 C.3     1  UNL1        0.0570
     27 C         140.3726  144.7329  164.1364 C.3     1  UNL1        0.0196
     28 C         137.5057  143.8602  164.2763 C.3     1  UNL1        0.0196
     29 C         138.8194  144.9086  165.5706 C.3     1  UNL1        0.0196
@<TRIPOS>BOND
     1    14    13    1
     2    14    15    1
     3    15    16   am
     4    16    17    2
     5    16    18    1
     6    18    19    2
     7    19    20    1
     8    20     1    1
     9     1     2   ar
    10     2     3   ar
    11     3     4   ar
    12     4     5   ar
    13     5     6   ar
    14     6     7    2
    15     6     8   ar
    16     8     9    1
    17     8    10   ar
    18    10    24    1
    19    24    26    1
    20    26    27    1
    21    26    28    1
    22    26    29    1
    23    10    11   ar
    24    11    12   ar
    25    20    21    2
    26    21    22    1
    27    22    14    1
    28    22    18    1
    29    12     1   ar
    30    12     5   ar
    31    15    23    1
    32    24    25    1
@<TRIPOS>MOLECULE
*****
 29 32 0 0 0
SMALL
GASTEIGER

@<TRIPOS>ATOM
      1 C         143.4149  141.8875  164.9237 C.ar    1  UNL1        0.0351
      2 C         144.6405  141.0789  164.6174 C.ar    1  UNL1        0.0030
      3 C         145.2272  141.0998  163.2371 C.ar    1  UNL1        0.0003
      4 C         144.5882  141.9295  162.1631 C.ar    1  UNL1        0.0063
      5 C         143.3626  142.7382  162.4694 C.ar    1  UNL1        0.0740
      6 C         142.7237  143.5678  161.3955 C.ar    1  UNL1        0.2643
      7 O         143.3104  143.5888  160.0151 O.2     1  UNL1       -0.2668
      8 N         141.4981  144.3765  161.7018 N.ar    1  UNL1       -0.2669
      9 C         140.8592  145.2062  160.6278 C.3     1  UNL1        0.1363
     10 C         140.9114  144.3556  163.0822 C.ar    1  UNL1        0.2000
     11 N         141.5503  143.5259  164.1562 N.ar    1  UNL1       -0.2150
     12 C         142.7760  142.7172  163.8498 C.ar    1  UNL1        0.0901
     13 C         139.2991  140.1568  169.3404 C.3     1  UNL1        0.0237
     14 C         140.5000  141.0554  169.3608 C.3     1  UNL1        0.0985
     15 N         141.0224  141.8020  170.5523 N.am    1  UNL1       -0.3004
     16 C         142.2345  142.5733  170.1211 C.2     1  UNL1        0.2438
     17 O         143.0727  143.4589  170.9946 O.2     1  UNL1       -0.2704
     18 C         142.4613  142.3034  168.6632 C.2     1  UNL1        0.0563
     19 C         143.3506  142.6132  167.4956 C.2     1  UNL1        0.0209
     20 C         142.8282  141.8666  166.3041 C.2     1  UNL1        0.0777
     21 N         141.6160  141.0953  166.7353 N.2     1  UNL1       -0.2660
     22 C         141.3892  141.3653  168.1933 C.3     1  UNL1        0.1476
     23 H         140.6373  141.7883  171.4583 H       1  UNL1        0.1498
     24 N         139.6858  145.1642  163.3885 N.pl3   1  UNL1       -0.3074
     25 H         139.6718  146.1295  163.1951 H       1  UNL1        0.1495
     26 C         138.4814  144.5024  163.9896 C.3     1  UNL1        0.0570
     27 C         138.8647  145.0312  165.3400 C.3     1  UNL1        0.0196
     28 C         138.0981  143.9735  162.6393 C.3     1  UNL1        0.0196
     29 C         137.2770  143.8405  164.5907 C.3     1  UNL1        0.0196
@<TRIPOS>BOND
     1    14    13    1
     2    14    15    1
     3    15    16   am
     4    16    17    2
     5    16    18    1
     6    18    19    2
     7    19    20    1
     8    20     1    1
     9     1     2   ar
    10     2     3   ar
    11     3     4   ar
    12     4     5   ar
    13     5     6   ar
    14     6     7    2
    15     6     8   ar
    16     8     9    1
    17     8    10   ar
    18    10    24    1
    19    24    26    1
    20    26    27    1
    21    26    28    1
    22    26    29    1
    23    10    11   ar
    24    11    12   ar
    25    20    21    2
    26    21    22    1
    27    22    14    1
    28    22    18    1
    29    12     1   ar
    30    12     5   ar
    31    15    23    1
    32    24    25    1
@<TRIPOS>MOLECULE
*****
 29 32 0 0 0
SMALL
GASTEIGER

@<TRIPOS>ATOM
      1 C         142.6927  142.4707  165.7825 C.ar    1  UNL1        0.0351
      2 C         143.8795  143.3560  165.5423 C.ar    1  UNL1        0.0030
      3 C         144.1123  143.9457  164.1830 C.ar    1  UNL1        0.0003
      4 C         143.1583  143.6501  163.0638 C.ar    1  UNL1        0.0063
      5 C         141.9716  142.7648  163.3040 C.ar    1  UNL1        0.0740
      6 C         141.0176  142.4692  162.1848 C.ar    1  UNL1        0.2643
      7 O         141.2504  143.0590  160.8254 O.2     1  UNL1       -0.2668
      8 N         139.8308  141.5839  162.4250 N.ar    1  UNL1       -0.2669
      9 C         138.8768  141.2884  161.3058 C.3     1  UNL1        0.1363
     10 C         139.5980  140.9941  163.7844 C.ar    1  UNL1        0.2000
     11 N         140.5519  141.2897  164.9036 N.ar    1  UNL1       -0.2150
     12 C         141.7387  142.1751  164.6634 C.ar    1  UNL1        0.0901
     13 C         143.0543  138.0245  170.2032 C.3     1  UNL1        0.0237
     14 C         142.4529  139.3985  170.1850 C.3     1  UNL1        0.0985
     15 N         141.7433  140.0656  171.3257 N.am    1  UNL1       -0.3004
     16 C         141.3074  141.4261  170.8684 C.2     1  UNL1        0.2438
     17 O         140.5621  142.4356  171.6902 O.2     1  UNL1       -0.2704
     18 C         141.7476  141.5998  169.4451 C.2     1  UNL1        0.0563
     19 C         141.7502  142.5480  168.2827 C.2     1  UNL1        0.0209
     20 C         142.4599  141.8809  167.1420 C.2     1  UNL1        0.0777
     21 N         142.8958  140.5204  167.5993 N.2     1  UNL1       -0.2660
     22 C         142.4556  140.3466  169.0226 C.3     1  UNL1        0.1476
     23 H         141.5905  139.6785  172.2179 H       1  UNL1        0.1498
     24 N         138.4112  140.1088  164.0246 N.pl3   1  UNL1       -0.3074
     25 H         137.5143  140.4004  163.7420 H       1  UNL1        0.1495
     26 C         138.5908  138.7792  164.6954 C.3     1  UNL1        0.0570
     27 C         139.1248  138.2061  163.4162 C.3     1  UNL1        0.0196
     28 C         138.0569  139.3524  165.9746 C.3     1  UNL1        0.0196
     29 C         138.7705  137.4497  165.3661 C.3     1  UNL1        0.0196
@<TRIPOS>BOND
     1    14    13    1
     2    14    15    1
     3    15    16   am
     4    16    17    2
     5    16    18    1
     6    18    19    2
     7    19    20    1
     8    20     1    1
     9     1     2   ar
    10     2     3   ar
    11     3     4   ar
    12     4     5   ar
    13     5     6   ar
    14     6     7    2
    15     6     8   ar
    16     8     9    1
    17     8    10   ar
    18    10    24    1
    19    24    26    1
    20    26    27    1
    21    26    28    1
    22    26    29    1
    23    10    11   ar
    24    11    12   ar
    25    20    21    2
    26    21    22    1
    27    22    14    1
    28    22    18    1
    29    12     1   ar
    30    12     5   ar
    31    15    23    1
    32    24    25    1
@<TRIPOS>MOLECULE
*****
 29 32 0 0 0
SMALL
GASTEIGER

@<TRIPOS>ATOM
      1 C         142.3492  140.3007  165.7713 C.ar    1  UNL1        0.0351
      2 C         143.5205  139.3774  165.9307 C.ar    1  UNL1        0.0030
      3 C         144.2942  138.9326  164.7251 C.ar    1  UNL1        0.0003
      4 C         143.8966  139.4111  163.3602 C.ar    1  UNL1        0.0063
      5 C         142.7253  140.3344  163.2008 C.ar    1  UNL1        0.0740
      6 C         142.3277  140.8129  161.8359 C.ar    1  UNL1        0.2643
      7 O         143.1015  140.3681  160.6304 O.2     1  UNL1       -0.2668
      8 N         141.1564  141.7362  161.6766 N.ar    1  UNL1       -0.2669
      9 C         140.7588  142.2147  160.3117 C.3     1  UNL1        0.1363
     10 C         140.3826  142.1811  162.8822 C.ar    1  UNL1        0.2000
     11 N         140.7802  141.7026  164.2471 N.ar    1  UNL1       -0.2150
     12 C         141.9516  140.7792  164.4064 C.ar    1  UNL1        0.0901
     13 C         140.5089  144.3847  170.1732 C.3     1  UNL1        0.0237
     14 C         140.1541  142.9538  169.8968 C.3     1  UNL1        0.0985
     15 N         139.1940  142.1150  170.6872 N.am    1  UNL1       -0.3004
     16 C         139.1436  140.7531  170.0604 C.2     1  UNL1        0.2438
     17 O         138.3106  139.5971  170.5291 O.2     1  UNL1       -0.2704
     18 C         140.0725  140.7502  168.8826 C.2     1  UNL1        0.0563
     19 C         140.6154  139.9068  167.7673 C.2     1  UNL1        0.0209
     20 C         141.5754  140.7456  166.9769 C.2     1  UNL1        0.0777
     21 N         141.6258  142.1075  167.6037 N.2     1  UNL1       -0.2660
     22 C         140.6970  142.1104  168.7815 C.3     1  UNL1        0.1476
     23 H         138.6862  142.4070  171.4785 H       1  UNL1        0.1498
     24 N         139.2113  143.1044  162.7228 N.pl3   1  UNL1       -0.3074
     25 H         138.7632  143.1850  161.8500 H       1  UNL1        0.1495
     26 C         138.7228  143.9051  163.8934 C.3     1  UNL1        0.0570
     27 C         139.7825  144.9340  163.6320 C.3     1  UNL1        0.0196
     28 C         137.6630  142.8762  164.1549 C.3     1  UNL1        0.0196
     29 C         138.2342  144.7058  165.0640 C.3     1  UNL1        0.0196
@<TRIPOS>BOND
     1    14    13    1
     2    14    15    1
     3    15    16   am
     4    16    17    2
     5    16    18    1
     6    18    19    2
     7    19    20    1
     8    20     1    1
     9     1     2   ar
    10     2     3   ar
    11     3     4   ar
    12     4     5   ar
    13     5     6   ar
    14     6     7    2
    15     6     8   ar
    16     8     9    1
    17     8    10   ar
    18    10    24    1
    19    24    26    1
    20    26    27    1
    21    26    28    1
    22    26    29    1
    23    10    11   ar
    24    11    12   ar
    25    20    21    2
    26    21    22    1
    27    22    14    1
    28    22    18    1
    29    12     1   ar
    30    12     5   ar
    31    15    23    1
    32    24    25    1
@<TRIPOS>MOLECULE
*****
 29 32 0 0 0
SMALL
GASTEIGER

@<TRIPOS>ATOM
      1 C         140.0995  143.5148  163.6261 C.ar    1  UNL1        0.0351
      2 C         139.2283  144.7311  163.5183 C.ar    1  UNL1        0.0030
      3 C         139.3751  145.6574  162.3478 C.ar    1  UNL1        0.0003
      4 C         140.3932  145.3675  161.2850 C.ar    1  UNL1        0.0063
      5 C         141.2644  144.1513  161.3928 C.ar    1  UNL1        0.0740
      6 C         142.2824  143.8614  160.3300 C.ar    1  UNL1        0.2643
      7 O         142.4293  144.7877  159.1594 O.2     1  UNL1       -0.2668
      8 N         143.1536  142.6451  160.4377 N.ar    1  UNL1       -0.2669
      9 C         144.1717  142.3552  159.3749 C.3     1  UNL1        0.1363
     10 C         143.0068  141.7186  161.6083 C.ar    1  UNL1        0.2000
     11 N         141.9887  142.0085  162.6711 N.ar    1  UNL1       -0.2150
     12 C         141.1175  143.2249  162.5633 C.ar    1  UNL1        0.0901
     13 C         137.9347  138.4556  166.6526 C.3     1  UNL1        0.0237
     14 C         138.8484  139.5739  167.0584 C.3     1  UNL1        0.0985
     15 N         139.5007  139.7371  168.3992 N.am    1  UNL1       -0.3004
     16 C         140.3256  140.9894  168.3640 C.2     1  UNL1        0.2438
     17 O         141.1485  141.5351  169.4931 O.2     1  UNL1       -0.2704
     18 C         140.1832  141.6002  167.0014 C.2     1  UNL1        0.0563
     19 C         140.6049  142.7516  166.1375 C.2     1  UNL1        0.0209
     20 C         139.9526  142.5884  164.7967 C.2     1  UNL1        0.0777
     21 N         139.1277  141.3361  164.8319 N.2     1  UNL1       -0.2660
     22 C         139.2702  140.7253  166.1945 C.3     1  UNL1        0.1476
     23 H         139.4043  139.1290  169.1675 H       1  UNL1        0.1498
     24 N         143.8780  140.5024  161.7161 N.pl3   1  UNL1       -0.3074
     25 H         144.0519  139.9494  160.9203 H       1  UNL1        0.1495
     26 C         144.4842  140.1286  163.0362 C.3     1  UNL1        0.0570
     27 C         145.3017  141.3860  163.0168 C.3     1  UNL1        0.0196
     28 C         143.6666  138.8711  163.0556 C.3     1  UNL1        0.0196
     29 C         145.0904  139.7548  164.3564 C.3     1  UNL1        0.0196
@<TRIPOS>BOND
     1    14    13    1
     2    14    15    1
     3    15    16   am
     4    16    17    2
     5    16    18    1
     6    18    19    2
     7    19    20    1
     8    20     1    1
     9     1     2   ar
    10     2     3   ar
    11     3     4   ar
    12     4     5   ar
    13     5     6   ar
    14     6     7    2
    15     6     8   ar
    16     8     9    1
    17     8    10   ar
    18    10    24    1
    19    24    26    1
    20    26    27    1
    21    26    28    1
    22    26    29    1
    23    10    11   ar
    24    11    12   ar
    25    20    21    2
    26    21    22    1
    27    22    14    1
    28    22    18    1
    29    12     1   ar
    30    12     5   ar
    31    15    23    1
    32    24    25    1
@<TRIPOS>MOLECULE
*****
 29 32 0 0 0
SMALL
GASTEIGER

@<TRIPOS>ATOM
      1 C         143.1988  141.8502  165.4999 C.ar    1  UNL1        0.0351
      2 C         143.8173  143.2143  165.5811 C.ar    1  UNL1        0.0030
      3 C         144.3745  143.8597  164.3471 C.ar    1  UNL1        0.0003
      4 C         144.3132  143.1411  163.0319 C.ar    1  UNL1        0.0063
      5 C         143.6947  141.7770  162.9507 C.ar    1  UNL1        0.0740
      6 C         143.6334  141.0584  161.6355 C.ar    1  UNL1        0.2643
      7 O         144.1906  141.7038  160.4015 O.2     1  UNL1       -0.2668
      8 N         143.0148  139.6943  161.5543 N.ar    1  UNL1       -0.2669
      9 C         142.9535  138.9756  160.2391 C.3     1  UNL1        0.1363
     10 C         142.4576  139.0488  162.7884 C.ar    1  UNL1        0.2000
     11 N         142.5189  139.7674  164.1036 N.ar    1  UNL1       -0.2150
     12 C         143.1375  141.1316  164.1847 C.ar    1  UNL1        0.0901
     13 C         138.9830  140.9961  170.0759 C.3     1  UNL1        0.0237
     14 C         140.2892  140.3321  169.7551 C.3     1  UNL1        0.0985
     15 N         140.9263  139.2182  170.5319 N.am    1  UNL1       -0.3004
     16 C         142.2185  138.8632  169.8580 C.2     1  UNL1        0.2438
     17 O         143.1803  137.8003  170.2998 O.2     1  UNL1       -0.2704
     18 C         142.3801  139.7576  168.6647 C.2     1  UNL1        0.0563
     19 C         143.2785  140.0909  167.5108 C.2     1  UNL1        0.0209
     20 C         142.6415  141.2047  166.7340 C.2     1  UNL1        0.0777
     21 N         141.3492  141.5598  167.4079 N.2     1  UNL1       -0.2660
     22 C         141.1876  140.6654  168.6011 C.3     1  UNL1        0.1476
     23 H         140.5605  138.7946  171.3418 H       1  UNL1        0.1498
     24 N         141.8390  137.6847  162.7072 N.pl3   1  UNL1       -0.3074
     25 H         142.3482  136.9355  162.3216 H       1  UNL1        0.1495
     26 C         140.4447  137.4621  163.2135 C.3     1  UNL1        0.0570
     27 C         140.9975  136.8573  164.4699 C.3     1  UNL1        0.0196
     28 C         139.8919  138.0669  161.9570 C.3     1  UNL1        0.0196
     29 C         139.0504  137.2395  163.7198 C.3     1  UNL1        0.0196
@<TRIPOS>BOND
     1    14    13    1
     2    14    15    1
     3    15    16   am
     4    16    17    2
     5    16    18    1
     6    18    19    2
     7    19    20    1
     8    20     1    1
     9     1     2   ar
    10     2     3   ar
    11     3     4   ar
    12     4     5   ar
    13     5     6   ar
    14     6     7    2
    15     6     8   ar
    16     8     9    1
    17     8    10   ar
    18    10    24    1
    19    24    26    1
    20    26    27    1
    21    26    28    1
    22    26    29    1
    23    10    11   ar
    24    11    12   ar
    25    20    21    2
    26    21    22    1
    27    22    14    1
    28    22    18    1
    29    12     1   ar
    30    12     5   ar
    31    15    23    1
    32    24    25    1
@<TRIPOS>MOLECULE
*****
 29 32 0 0 0
SMALL
GASTEIGER

@<TRIPOS>ATOM
      1 C         140.5099  139.3921  165.3231 C.ar    1  UNL1        0.0351
      2 C         139.3985  138.3856  165.2821 C.ar    1  UNL1        0.0030
      3 C         139.0030  137.7578  163.9786 C.ar    1  UNL1        0.0003
      4 C         139.7188  138.1365  162.7159 C.ar    1  UNL1        0.0063
      5 C         140.8301  139.1430  162.7569 C.ar    1  UNL1        0.0740
      6 C         141.5459  139.5217  161.4943 C.ar    1  UNL1        0.2643
      7 O         141.1504  138.8939  160.1907 O.2     1  UNL1       -0.2668
      8 N         142.6573  140.5282  161.5352 N.ar    1  UNL1       -0.2669
      9 C         143.3731  140.9069  160.2726 C.3     1  UNL1        0.1363
     10 C         143.0529  141.1561  162.8388 C.ar    1  UNL1        0.2000
     11 N         142.3371  140.7774  164.1014 N.ar    1  UNL1       -0.2150
     12 C         141.2257  139.7708  164.0604 C.ar    1  UNL1        0.0901
     13 C         140.4209  143.8231  169.7729 C.3     1  UNL1        0.0237
     14 C         141.1587  142.5237  169.6415 C.3     1  UNL1        0.0985
     15 N         142.1229  141.9526  170.6386 N.am    1  UNL1       -0.3004
     16 C         142.6220  140.6432  170.1033 C.2     1  UNL1        0.2438
     17 O         143.6043  139.7319  170.7775 O.2     1  UNL1       -0.2704
     18 C         141.9663  140.4052  168.7753 C.2     1  UNL1        0.0563
     19 C         141.8696  139.4489  167.6238 C.2     1  UNL1        0.0209
     20 C         140.9055  140.0200  166.6267 C.2     1  UNL1        0.0777
     21 N         140.4063  141.3294  167.1620 N.2     1  UNL1       -0.2660
     22 C         141.0620  141.5674  168.4899 C.3     1  UNL1        0.1476
     23 H         142.3825  142.3647  171.4942 H       1  UNL1        0.1498
     24 N         144.1642  142.1627  162.8798 N.pl3   1  UNL1       -0.3074
     25 H         145.0421  141.9427  162.4921 H       1  UNL1        0.1495
     26 C         143.9381  143.5043  163.5113 C.3     1  UNL1        0.0570
     27 C         144.6944  143.0592  164.7278 C.3     1  UNL1        0.0196
     28 C         143.1818  143.9495  162.2948 C.3     1  UNL1        0.0196
     29 C         143.7120  144.8460  164.1428 C.3     1  UNL1        0.0196
@<TRIPOS>BOND
     1    14    13    1
     2    14    15    1
     3    15    16   am
     4    16    17    2
     5    16    18    1
     6    18    19    2
     7    19    20    1
     8    20     1    1
     9     1     2   ar
    10     2     3   ar
    11     3     4   ar
    12     4     5   ar
    13     5     6   ar
    14     6     7    2
    15     6     8   ar
    16     8     9    1
    17     8    10   ar
    18    10    24    1
    19    24    26    1
    20    26    27    1
    21    26    28    1
    22    26    29    1
    23    10    11   ar
    24    11    12   ar
    25    20    21    2
    26    21    22    1
    27    22    14    1
    28    22    18    1
    29    12     1   ar
    30    12     5   ar
    31    15    23    1
    32    24    25    1
@<TRIPOS>MOLECULE
*****
 29 32 0 0 0
SMALL
GASTEIGER

@<TRIPOS>ATOM
      1 C         140.5914  139.3991  162.5620 C.ar    1  UNL1        0.0351
      2 C         141.2587  138.1708  162.0180 C.ar    1  UNL1        0.0030
      3 C         141.7774  138.1599  160.6106 C.ar    1  UNL1        0.0003
      4 C         141.6288  139.3774  159.7472 C.ar    1  UNL1        0.0063
      5 C         140.9615  140.6058  160.2911 C.ar    1  UNL1        0.0740
      6 C         140.8130  141.8233  159.4276 C.ar    1  UNL1        0.2643
      7 O         141.3316  141.8125  158.0202 O.2     1  UNL1       -0.2668
      8 N         140.1457  143.0517  159.9715 N.ar    1  UNL1       -0.2669
      9 C         139.9971  144.2692  159.1081 C.3     1  UNL1        0.1363
     10 C         139.6270  143.0625  161.3790 C.ar    1  UNL1        0.2000
     11 N         139.7756  141.8450  162.2425 N.ar    1  UNL1       -0.2150
     12 C         140.4429  140.6166  161.6985 C.ar    1  UNL1        0.0901
     13 C         140.4935  141.1744  168.5853 C.3     1  UNL1        0.0237
     14 C         139.6420  140.2341  167.7848 C.3     1  UNL1        0.0985
     15 N         138.4765  139.4436  168.3011 N.am    1  UNL1       -0.3004
     16 C         137.9206  138.6402  167.1628 C.2     1  UNL1        0.2438
     17 O         136.7486  137.7067  167.2321 O.2     1  UNL1       -0.2704
     18 C         138.7427  138.9342  165.9430 C.2     1  UNL1        0.0563
     19 C         138.9072  138.6194  164.4857 C.2     1  UNL1        0.0209
     20 C         140.0727  139.4100  163.9694 C.2     1  UNL1        0.0777
     21 N         140.6285  140.2134  165.1077 N.2     1  UNL1       -0.2660
     22 C         139.8065  139.9194  166.3275 C.3     1  UNL1        0.1476
     23 H         138.1360  139.4507  169.2248 H       1  UNL1        0.1498
     24 N         138.9598  144.2909  161.9229 N.pl3   1  UNL1       -0.3074
     25 H         138.4975  144.9107  161.3135 H       1  UNL1        0.1495
     26 C         138.9968  144.5749  163.3953 C.3     1  UNL1        0.0570
     27 C         140.4180  145.0381  163.2702 C.3     1  UNL1        0.0196
     28 C         137.5756  144.1117  163.5204 C.3     1  UNL1        0.0196
     29 C         139.0339  144.8589  164.8677 C.3     1  UNL1        0.0196
@<TRIPOS>BOND
     1    14    13    1
     2    14    15    1
     3    15    16   am
     4    16    17    2
     5    16    18    1
     6    18    19    2
     7    19    20    1
     8    20     1    1
     9     1     2   ar
    10     2     3   ar
    11     3     4   ar
    12     4     5   ar
    13     5     6   ar
    14     6     7    2
    15     6     8   ar
    16     8     9    1
    17     8    10   ar
    18    10    24    1
    19    24    26    1
    20    26    27    1
    21    26    28    1
    22    26    29    1
    23    10    11   ar
    24    11    12   ar
    25    20    21    2
    26    21    22    1
    27    22    14    1
    28    22    18    1
    29    12     1   ar
    30    12     5   ar
    31    15    23    1
    32    24    25    1
@<TRIPOS>MOLECULE
*****
 29 32 0 0 0
SMALL
GASTEIGER

@<TRIPOS>ATOM
      1 C         139.9829  143.2891  164.8198 C.ar    1  UNL1        0.0351
      2 C         140.1716  144.7553  164.5656 C.ar    1  UNL1        0.0030
      3 C         139.7953  145.3407  163.2369 C.ar    1  UNL1        0.0003
      4 C         139.2302  144.4599  162.1622 C.ar    1  UNL1        0.0063
      5 C         139.0414  142.9937  162.4164 C.ar    1  UNL1        0.0740
      6 C         138.4763  142.1129  161.3417 C.ar    1  UNL1        0.2643
      7 O         138.1000  142.6983  160.0130 O.2     1  UNL1       -0.2668
      8 N         138.2875  140.6467  161.5959 N.ar    1  UNL1       -0.2669
      9 C         137.7224  139.7659  160.5212 C.3     1  UNL1        0.1363
     10 C         138.6639  140.0613  162.9247 C.ar    1  UNL1        0.2000
     11 N         139.2290  140.9421  163.9993 N.ar    1  UNL1       -0.2150
     12 C         139.4178  142.4083  163.7451 C.ar    1  UNL1        0.0901
     13 C         142.7300  139.1324  168.6430 C.3     1  UNL1        0.0237
     14 C         141.9019  140.3576  168.8941 C.3     1  UNL1        0.0985
     15 N         141.5176  140.9018  170.2380 N.am    1  UNL1       -0.3004
     16 C         140.6908  142.1343  170.0199 C.2     1  UNL1        0.2438
     17 O         140.0953  142.9977  171.0923 O.2     1  UNL1       -0.2704
     18 C         140.5641  142.3518  168.5412 C.2     1  UNL1        0.0563
     19 C         139.9749  143.2479  167.4925 C.2     1  UNL1        0.0209
     20 C         140.3592  142.7037  166.1486 C.2     1  UNL1        0.0777
     21 N         141.1860  141.4712  166.3667 N.2     1  UNL1       -0.2660
     22 C         141.3126  141.2537  167.8454 C.3     1  UNL1        0.1476
     23 H         141.7646  140.5176  171.1102 H       1  UNL1        0.1498
     24 N         138.4751  138.5951  163.1788 N.pl3   1  UNL1       -0.3074
     25 H         137.6134  138.1665  162.9716 H       1  UNL1        0.1495
     26 C         139.5993  137.7818  163.7487 C.3     1  UNL1        0.0570
     27 C         138.8501  137.6522  165.0417 C.3     1  UNL1        0.0196
     28 C         140.3486  137.9115  162.4557 C.3     1  UNL1        0.0196
     29 C         140.7235  136.9686  164.3186 C.3     1  UNL1        0.0196
@<TRIPOS>BOND
     1    14    13    1
     2    14    15    1
     3    15    16   am
     4    16    17    2
     5    16    18    1
     6    18    19    2
     7    19    20    1
     8    20     1    1
     9     1     2   ar
    10     2     3   ar
    11     3     4   ar
    12     4     5   ar
    13     5     6   ar
    14     6     7    2
    15     6     8   ar
    16     8     9    1
    17     8    10   ar
    18    10    24    1
    19    24    26    1
    20    26    27    1
    21    26    28    1
    22    26    29    1
    23    10    11   ar
    24    11    12   ar
    25    20    21    2
    26    21    22    1
    27    22    14    1
    28    22    18    1
    29    12     1   ar
    30    12     5   ar
    31    15    23    1
    32    24    25    1
