@<TRIPOS>MOLECULE
*****
 45 48 0 0 0
SMALL
GASTEIGER

@<TRIPOS>ATOM
      1 C         140.5839  145.2828  159.8453 C.3     1  UNL1        0.0700
      2 N         139.8850  144.3974  163.5592 N.3     1  UNL1       -0.2689
      3 C         141.3639  144.6458  163.5938 C.3     1  UNL1        0.0725
      4 C         141.8057  145.0078  162.2068 C.3     1  UNL1        0.0201
      5 C         140.5999  144.9830  161.3150 C.3     1  UNL1        0.0331
      6 C         139.4129  144.6058  162.1508 C.3     1  UNL1        0.0738
      7 C         139.0287  144.0088  164.7279 C.3     1  UNL1        0.0991
      8 C         139.5687  140.3497  166.1663 C.ar    1  UNL1        0.0103
      9 C         139.1424  141.4691  165.2635 C.ar    1  UNL1       -0.0042
     10 C         139.4551  142.8894  165.6307 C.ar    1  UNL1       -0.0066
     11 C         140.1941  143.1903  166.9009 C.ar    1  UNL1       -0.0042
     12 C         140.6204  142.0709  167.8037 C.ar    1  UNL1        0.0103
     13 C         140.3078  140.6506  167.4364 C.ar    1  UNL1        0.1255
     14 O         140.7341  139.5311  168.3393 O.3     1  UNL1       -0.5061
     15 H         141.1958  139.7191  169.1327 H       1  UNL1        0.2922
     16 C         140.5946  138.8068  165.1332 C.3     1  UNL1        0.0045
     17 C         139.2560  138.9293  165.7990 C.3     1  UNL1        0.0218
     18 C         137.9175  139.0519  166.4647 C.3     1  UNL1        0.0045
     19 C         138.9433  137.5090  165.4317 C.3     1  UNL1        0.0045
     20 C         141.3595  142.3718  169.0739 C.3     1  UNL1        0.0218
     21 C         140.0546  142.5093  169.8006 C.3     1  UNL1        0.0045
     22 C         142.6644  142.2342  168.3471 C.3     1  UNL1        0.0045
     23 C         142.0986  142.6727  170.3440 C.3     1  UNL1        0.0045
     24 N         141.8714  145.5288  159.1160 N.3     1  UNL1       -0.2974
     25 H         142.5752  145.7389  159.8237 H       1  UNL1        0.1232
     26 C         142.4493  144.4621  158.2339 C.3     1  UNL1        0.0686
     27 C         143.1575  143.2881  158.8422 C.3     1  UNL1        0.0171
     28 C         142.5120  141.9341  158.8298 C.3     1  UNL1        0.0014
     29 C         143.3548  140.7002  158.9612 C.3     1  UNL1        0.0007
     30 C         143.6882  140.1609  160.3206 C.3     1  UNL1        0.0087
     31 C         142.8270  140.5105  161.4980 C.3     1  UNL1        0.0446
     32 C         143.3753  141.3678  162.5999 C.ar    1  UNL1       -0.0183
     33 C         142.9235  141.1516  164.0138 C.ar    1  UNL1       -0.0017
     34 C         143.4718  142.0090  165.1158 C.ar    1  UNL1        0.0293
     35 C         144.4720  143.0825  164.8039 C.ar    1  UNL1        0.1401
     36 F         145.0202  143.9398  165.9059 F       1  UNL1       -0.2042
     37 C         144.9238  143.2987  163.3900 C.ar    1  UNL1        0.0293
     38 C         144.3755  142.4413  162.2880 C.ar    1  UNL1       -0.0017
     39 C         141.4176  140.0027  161.5735 C.ar    1  UNL1       -0.0183
     40 C         141.1456  138.5300  161.4888 C.ar    1  UNL1       -0.0017
     41 C         139.7361  138.0221  161.5643 C.ar    1  UNL1        0.0293
     42 C         138.5988  138.9870  161.7244 C.ar    1  UNL1        0.1401
     43 F         137.1894  138.4792  161.7998 F       1  UNL1       -0.2042
     44 C         138.8710  140.4597  161.8090 C.ar    1  UNL1        0.0293
     45 C         140.2803  140.9675  161.7336 C.ar    1  UNL1       -0.0017
@<TRIPOS>BOND
     1    16    17    1
     2    17    18    1
     3    17    19    1
     4    17     8    1
     5     8     9   ar
     6     9    10   ar
     7    10     7    1
     8     7     2    1
     9     2     3    1
    10     3     4    1
    11     4     5    1
    12     5     1    1
    13     1    24    1
    14    24    26    1
    15    26    27    1
    16    27    28    1
    17    28    29    1
    18    29    30    1
    19    30    31    1
    20    31    32    1
    21    32    33   ar
    22    33    34   ar
    23    34    35   ar
    24    35    36    1
    25    35    37   ar
    26    37    38   ar
    27    31    39    1
    28    39    40   ar
    29    40    41   ar
    30    41    42   ar
    31    42    43    1
    32    42    44   ar
    33    44    45   ar
    34     5     6    1
    35    10    11   ar
    36    11    12   ar
    37    12    20    1
    38    20    21    1
    39    20    22    1
    40    20    23    1
    41    12    13   ar
    42    13    14    1
    43    13     8   ar
    44     6     2    1
    45    38    32   ar
    46    45    39   ar
    47    24    25    1
    48    14    15    1
@<TRIPOS>MOLECULE
*****
 45 48 0 0 0
SMALL
GASTEIGER

@<TRIPOS>ATOM
      1 C         137.9220  139.8594  159.9175 C.3     1  UNL1        0.0700
      2 N         138.0908  140.0200  163.7920 N.3     1  UNL1       -0.2689
      3 C         137.7738  141.4471  163.4562 C.3     1  UNL1        0.0725
      4 C         137.6720  141.5607  161.9640 C.3     1  UNL1        0.0201
      5 C         137.9261  140.2038  161.3774 C.3     1  UNL1        0.0331
      6 C         138.1848  139.2515  162.5072 C.3     1  UNL1        0.0738
      7 C         138.2803  139.4596  165.1704 C.3     1  UNL1        0.0991
      8 C         142.1021  139.8280  166.1746 C.ar    1  UNL1        0.0103
      9 C         140.8689  139.4896  165.3906 C.ar    1  UNL1       -0.0042
     10 C         139.5136  139.7980  165.9545 C.ar    1  UNL1       -0.0066
     11 C         139.3914  140.4447  167.3023 C.ar    1  UNL1       -0.0042
     12 C         140.6246  140.7830  168.0864 C.ar    1  UNL1        0.0103
     13 C         141.9799  140.4747  167.5225 C.ar    1  UNL1        0.1255
     14 O         143.2132  140.8130  168.3066 O.3     1  UNL1       -0.5061
     15 H         143.1369  141.2170  169.1486 H       1  UNL1        0.2922
     16 C         143.3693  138.1268  166.1607 C.3     1  UNL1        0.0045
     17 C         143.4575  139.5196  165.6108 C.3     1  UNL1        0.0218
     18 C         143.5456  140.9124  165.0609 C.3     1  UNL1        0.0045
     19 C         144.8128  139.2112  165.0469 C.3     1  UNL1        0.0045
     20 C         140.5025  141.4298  169.4343 C.3     1  UNL1        0.0218
     21 C         140.5262  142.7828  168.7873 C.3     1  UNL1        0.0045
     22 C         140.4787  140.0767  170.0813 C.3     1  UNL1        0.0045
     23 C         140.3804  142.0765  170.7822 C.3     1  UNL1        0.0045
     24 N         137.9968  140.9494  158.8896 N.3     1  UNL1       -0.2974
     25 H         137.2810  141.6338  159.1336 H       1  UNL1        0.1232
     26 C         139.2748  141.7101  158.6947 C.3     1  UNL1        0.0686
     27 C         139.2983  143.1979  158.8839 C.3     1  UNL1        0.0171
     28 C         140.5075  143.9866  158.4769 C.3     1  UNL1        0.0014
     29 C         141.8501  143.6543  159.0575 C.3     1  UNL1        0.0007
     30 C         142.1754  144.0474  160.4680 C.3     1  UNL1        0.0087
     31 C         141.8098  143.1378  161.6034 C.3     1  UNL1        0.0446
     32 C         142.3415  141.7358  161.6422 C.ar    1  UNL1       -0.0183
     33 C         143.8128  141.4873  161.4889 C.ar    1  UNL1       -0.0017
     34 C         144.3446  140.0852  161.5277 C.ar    1  UNL1        0.0293
     35 C         143.4052  138.9317  161.7199 C.ar    1  UNL1        0.1401
     36 F         143.9370  137.5297  161.7587 F       1  UNL1       -0.2042
     37 C         141.9339  139.1803  161.8732 C.ar    1  UNL1        0.0293
     38 C         141.4020  140.5824  161.8344 C.ar    1  UNL1       -0.0017
     39 C         140.9125  143.6303  162.6999 C.ar    1  UNL1       -0.0183
     40 C         141.1345  143.1753  164.1119 C.ar    1  UNL1       -0.0017
     41 C         140.2372  143.6678  165.2085 C.ar    1  UNL1        0.0293
     42 C         139.1179  144.6152  164.8930 C.ar    1  UNL1        0.1401
     43 F         138.2206  145.1077  165.9894 F       1  UNL1       -0.2042
     44 C         138.8959  145.0702  163.4809 C.ar    1  UNL1        0.0293
     45 C         139.7932  144.5777  162.3844 C.ar    1  UNL1       -0.0017
@<TRIPOS>BOND
     1    16    17    1
     2    17    18    1
     3    17    19    1
     4    17     8    1
     5     8     9   ar
     6     9    10   ar
     7    10     7    1
     8     7     2    1
     9     2     3    1
    10     3     4    1
    11     4     5    1
    12     5     1    1
    13     1    24    1
    14    24    26    1
    15    26    27    1
    16    27    28    1
    17    28    29    1
    18    29    30    1
    19    30    31    1
    20    31    32    1
    21    32    33   ar
    22    33    34   ar
    23    34    35   ar
    24    35    36    1
    25    35    37   ar
    26    37    38   ar
    27    31    39    1
    28    39    40   ar
    29    40    41   ar
    30    41    42   ar
    31    42    43    1
    32    42    44   ar
    33    44    45   ar
    34     5     6    1
    35    10    11   ar
    36    11    12   ar
    37    12    20    1
    38    20    21    1
    39    20    22    1
    40    20    23    1
    41    12    13   ar
    42    13    14    1
    43    13     8   ar
    44     6     2    1
    45    38    32   ar
    46    45    39   ar
    47    24    25    1
    48    14    15    1
@<TRIPOS>MOLECULE
*****
 45 48 0 0 0
SMALL
GASTEIGER

@<TRIPOS>ATOM
      1 C         137.6994  139.8561  159.9557 C.3     1  UNL1        0.0700
      2 N         138.0716  140.0329  163.8152 N.3     1  UNL1       -0.2689
      3 C         137.8676  141.4800  163.4771 C.3     1  UNL1        0.0725
      4 C         137.7033  141.5899  161.9901 C.3     1  UNL1        0.0201
      5 C         137.8058  140.2108  161.4093 C.3     1  UNL1        0.0331
      6 C         138.0334  139.2485  162.5372 C.3     1  UNL1        0.0738
      7 C         138.2775  139.4692  165.1899 C.3     1  UNL1        0.0991
      8 C         140.6353  140.7971  168.0929 C.ar    1  UNL1        0.0103
      9 C         139.3984  140.4513  167.3181 C.ar    1  UNL1       -0.0042
     10 C         139.5146  139.8151  165.9647 C.ar    1  UNL1       -0.0066
     11 C         140.8676  139.5247  165.3861 C.ar    1  UNL1       -0.0042
     12 C         142.1046  139.8706  166.1609 C.ar    1  UNL1        0.0103
     13 C         141.9884  140.5068  167.5143 C.ar    1  UNL1        0.1255
     14 O         143.2254  140.8526  168.2891 O.3     1  UNL1       -0.5061
     15 H         144.0707  140.6712  167.9277 H       1  UNL1        0.2922
     16 C         140.4931  140.0752  170.0826 C.3     1  UNL1        0.0045
     17 C         140.5192  141.4333  169.4464 C.3     1  UNL1        0.0218
     18 C         140.5453  142.7915  168.8102 C.3     1  UNL1        0.0045
     19 C         140.4031  142.0695  170.7998 C.3     1  UNL1        0.0045
     20 C         143.4577  139.5802  165.5823 C.3     1  UNL1        0.0218
     21 C         143.5442  140.9899  165.0770 C.3     1  UNL1        0.0045
     22 C         143.3712  138.1706  166.0876 C.3     1  UNL1        0.0045
     23 C         144.8108  139.2898  165.0037 C.3     1  UNL1        0.0045
     24 N         138.1911  140.8146  158.9119 N.3     1  UNL1       -0.2974
     25 H         138.1729  141.7434  159.3331 H       1  UNL1        0.1232
     26 C         139.5550  140.6371  158.3135 C.3     1  UNL1        0.0686
     27 C         140.5193  141.7857  158.2908 C.3     1  UNL1        0.0171
     28 C         140.1958  143.0513  159.0282 C.3     1  UNL1        0.0014
     29 C         141.2561  144.0927  159.2319 C.3     1  UNL1        0.0007
     30 C         142.1328  144.0426  160.4479 C.3     1  UNL1        0.0087
     31 C         141.7770  143.1407  161.5925 C.3     1  UNL1        0.0446
     32 C         142.2958  141.7339  161.6281 C.ar    1  UNL1       -0.0183
     33 C         141.3462  140.5890  161.8221 C.ar    1  UNL1       -0.0017
     34 C         141.8651  139.1820  161.8577 C.ar    1  UNL1        0.0293
     35 C         143.3335  138.9199  161.6994 C.ar    1  UNL1        0.1401
     36 F         143.8523  137.5129  161.7351 F       1  UNL1       -0.2042
     37 C         144.2831  140.0647  161.5055 C.ar    1  UNL1        0.0293
     38 C         143.7642  141.4718  161.4699 C.ar    1  UNL1       -0.0017
     39 C         140.9023  143.6459  162.7014 C.ar    1  UNL1       -0.0183
     40 C         139.7874  144.6032  162.4004 C.ar    1  UNL1       -0.0017
     41 C         138.9126  145.1084  163.5093 C.ar    1  UNL1        0.0293
     42 C         139.1528  144.6562  164.9192 C.ar    1  UNL1        0.1401
     43 F         138.2780  145.1613  166.0281 F       1  UNL1       -0.2042
     44 C         140.2677  143.6988  165.2202 C.ar    1  UNL1        0.0293
     45 C         141.1424  143.1937  164.1113 C.ar    1  UNL1       -0.0017
@<TRIPOS>BOND
     1    16    17    1
     2    17    18    1
     3    17    19    1
     4    17     8    1
     5     8     9   ar
     6     9    10   ar
     7    10     7    1
     8     7     2    1
     9     2     3    1
    10     3     4    1
    11     4     5    1
    12     5     1    1
    13     1    24    1
    14    24    26    1
    15    26    27    1
    16    27    28    1
    17    28    29    1
    18    29    30    1
    19    30    31    1
    20    31    32    1
    21    32    33   ar
    22    33    34   ar
    23    34    35   ar
    24    35    36    1
    25    35    37   ar
    26    37    38   ar
    27    31    39    1
    28    39    40   ar
    29    40    41   ar
    30    41    42   ar
    31    42    43    1
    32    42    44   ar
    33    44    45   ar
    34     5     6    1
    35    10    11   ar
    36    11    12   ar
    37    12    20    1
    38    20    21    1
    39    20    22    1
    40    20    23    1
    41    12    13   ar
    42    13    14    1
    43    13     8   ar
    44     6     2    1
    45    38    32   ar
    46    45    39   ar
    47    24    25    1
    48    14    15    1
@<TRIPOS>MOLECULE
*****
 45 48 0 0 0
SMALL
GASTEIGER

@<TRIPOS>ATOM
      1 C         137.7025  139.8970  159.9275 C.3     1  UNL1        0.0700
      2 N         138.0698  140.0216  163.7895 N.3     1  UNL1       -0.2689
      3 C         137.8389  141.4696  163.4734 C.3     1  UNL1        0.0725
      4 C         137.6732  141.5992  161.9882 C.3     1  UNL1        0.0201
      5 C         137.8017  140.2313  161.3864 C.3     1  UNL1        0.0331
      6 C         138.0468  139.2563  162.4997 C.3     1  UNL1        0.0738
      7 C         138.2858  139.4409  165.1556 C.3     1  UNL1        0.0991
      8 C         142.1076  139.8542  166.1417 C.ar    1  UNL1        0.0103
      9 C         140.8748  139.5018  165.3633 C.ar    1  UNL1       -0.0042
     10 C         139.5186  139.7933  165.9340 C.ar    1  UNL1       -0.0066
     11 C         139.3952  140.4373  167.2831 C.ar    1  UNL1       -0.0042
     12 C         140.6281  140.7897  168.0615 C.ar    1  UNL1        0.0103
     13 C         141.9843  140.4982  167.4908 C.ar    1  UNL1        0.1255
     14 O         143.2171  140.8506  168.2692 O.3     1  UNL1       -0.5061
     15 H         143.1401  141.2529  169.1119 H       1  UNL1        0.2922
     16 C         143.5269  140.9527  165.0108 C.3     1  UNL1        0.0045
     17 C         143.4639  139.5627  165.5710 C.3     1  UNL1        0.0218
     18 C         143.4008  138.1727  166.1311 C.3     1  UNL1        0.0045
     19 C         144.8201  139.2712  165.0002 C.3     1  UNL1        0.0045
     20 C         140.5047  141.4337  169.4106 C.3     1  UNL1        0.0218
     21 C         140.5205  142.7878  168.7658 C.3     1  UNL1        0.0045
     22 C         140.4889  140.0795  170.0555 C.3     1  UNL1        0.0045
     23 C         140.3814  142.0775  170.7597 C.3     1  UNL1        0.0045
     24 N         138.9471  139.6388  159.1309 N.3     1  UNL1       -0.2974
     25 H         138.8600  138.6986  158.7451 H       1  UNL1        0.1232
     26 C         139.3084  140.5432  157.9900 C.3     1  UNL1        0.0686
     27 C         140.2825  141.6641  158.2010 C.3     1  UNL1        0.0171
     28 C         139.8791  142.8678  159.0002 C.3     1  UNL1        0.0014
     29 C         140.8455  143.9989  159.1919 C.3     1  UNL1        0.0007
     30 C         141.8917  143.9180  160.2637 C.3     1  UNL1        0.0087
     31 C         141.6601  143.0643  161.4751 C.3     1  UNL1        0.0446
     32 C         140.8468  143.5916  162.6198 C.ar    1  UNL1       -0.0183
     33 C         139.7433  144.5753  162.3654 C.ar    1  UNL1       -0.0017
     34 C         138.9300  145.1027  163.5102 C.ar    1  UNL1        0.0293
     35 C         139.2200  144.6463  164.9093 C.ar    1  UNL1        0.1401
     36 F         138.4066  145.1737  166.0540 F       1  UNL1       -0.2042
     37 C         140.3234  143.6626  165.1637 C.ar    1  UNL1        0.0293
     38 C         141.1368  143.1352  164.0189 C.ar    1  UNL1       -0.0017
     39 C         142.2417  141.6833  161.5418 C.ar    1  UNL1       -0.0183
     40 C         143.7213  141.4848  161.3952 C.ar    1  UNL1       -0.0017
     41 C         144.3030  140.1037  161.4618 C.ar    1  UNL1        0.0293
     42 C         143.4051  138.9212  161.6750 C.ar    1  UNL1        0.1401
     43 F         143.9867  137.5402  161.7417 F       1  UNL1       -0.2042
     44 C         141.9254  139.1197  161.8216 C.ar    1  UNL1        0.0293
     45 C         141.3438  140.5007  161.7550 C.ar    1  UNL1       -0.0017
@<TRIPOS>BOND
     1    16    17    1
     2    17    18    1
     3    17    19    1
     4    17     8    1
     5     8     9   ar
     6     9    10   ar
     7    10     7    1
     8     7     2    1
     9     2     3    1
    10     3     4    1
    11     4     5    1
    12     5     1    1
    13     1    24    1
    14    24    26    1
    15    26    27    1
    16    27    28    1
    17    28    29    1
    18    29    30    1
    19    30    31    1
    20    31    32    1
    21    32    33   ar
    22    33    34   ar
    23    34    35   ar
    24    35    36    1
    25    35    37   ar
    26    37    38   ar
    27    31    39    1
    28    39    40   ar
    29    40    41   ar
    30    41    42   ar
    31    42    43    1
    32    42    44   ar
    33    44    45   ar
    34     5     6    1
    35    10    11   ar
    36    11    12   ar
    37    12    20    1
    38    20    21    1
    39    20    22    1
    40    20    23    1
    41    12    13   ar
    42    13    14    1
    43    13     8   ar
    44     6     2    1
    45    38    32   ar
    46    45    39   ar
    47    24    25    1
    48    14    15    1
@<TRIPOS>MOLECULE
*****
 45 48 0 0 0
SMALL
GASTEIGER

@<TRIPOS>ATOM
      1 C         139.7751  143.7434  160.1894 C.3     1  UNL1        0.0700
      2 N         139.2468  143.7442  164.0347 N.3     1  UNL1       -0.2689
      3 C         137.8967  143.2985  163.5567 C.3     1  UNL1        0.0725
      4 C         137.9302  143.2439  162.0580 C.3     1  UNL1        0.0201
      5 C         139.3011  143.6559  161.6098 C.3     1  UNL1        0.0331
      6 C         140.1148  143.9651  162.8314 C.3     1  UNL1        0.0738
      7 C         139.6569  143.9354  165.4648 C.3     1  UNL1        0.0991
      8 C         142.1695  140.9189  166.0458 C.ar    1  UNL1        0.0103
      9 C         141.3493  141.9672  165.3543 C.ar    1  UNL1       -0.0042
     10 C         140.4772  142.8870  166.1564 C.ar    1  UNL1       -0.0066
     11 C         140.4253  142.7586  167.6499 C.ar    1  UNL1       -0.0042
     12 C         141.2455  141.7102  168.3414 C.ar    1  UNL1        0.0103
     13 C         142.1176  140.7904  167.5394 C.ar    1  UNL1        0.1255
     14 O         142.9378  139.7420  168.2310 O.3     1  UNL1       -0.5061
     15 H         142.9054  139.6618  169.1640 H       1  UNL1        0.2922
     16 C         142.0390  138.8970  165.4175 C.3     1  UNL1        0.0045
     17 C         143.0416  139.9990  165.2438 C.3     1  UNL1        0.0218
     18 C         144.0443  141.1011  165.0701 C.3     1  UNL1        0.0045
     19 C         143.9138  139.0792  164.4418 C.3     1  UNL1        0.0045
     20 C         141.1936  141.5817  169.8351 C.3     1  UNL1        0.0218
     21 C         140.1225  140.5393  169.7082 C.3     1  UNL1        0.0045
     22 C         142.2646  142.6241  169.9619 C.3     1  UNL1        0.0045
     23 C         141.1417  141.4532  171.3286 C.3     1  UNL1        0.0045
     24 N         138.9812  143.0977  159.0926 N.3     1  UNL1       -0.2974
     25 H         138.8101  143.8172  158.3901 H       1  UNL1        0.1232
     26 C         139.5346  141.9071  158.3672 C.3     1  UNL1        0.0686
     27 C         139.1522  140.5222  158.7977 C.3     1  UNL1        0.0171
     28 C         137.7402  140.2280  159.2099 C.3     1  UNL1        0.0014
     29 C         137.4349  139.8618  160.6322 C.3     1  UNL1        0.0007
     30 C         138.1018  138.6743  161.2606 C.3     1  UNL1        0.0087
     31 C         139.1630  138.8739  162.3018 C.3     1  UNL1        0.0446
     32 C         140.5877  139.0944  161.8879 C.ar    1  UNL1       -0.0183
     33 C         141.1671  140.4779  161.9015 C.ar    1  UNL1       -0.0017
     34 C         142.5920  140.6984  161.4876 C.ar    1  UNL1        0.0293
     35 C         143.4373  139.5354  161.0600 C.ar    1  UNL1        0.1401
     36 F         144.8621  139.7560  160.6460 F       1  UNL1       -0.2042
     37 C         142.8579  138.1519  161.0464 C.ar    1  UNL1        0.0293
     38 C         141.4331  137.9314  161.4603 C.ar    1  UNL1       -0.0017
     39 C         138.7994  138.8531  163.7569 C.ar    1  UNL1       -0.0183
     40 C         138.4626  140.1323  164.4642 C.ar    1  UNL1       -0.0017
     41 C         138.0990  140.1115  165.9194 C.ar    1  UNL1        0.0293
     42 C         138.0721  138.8114  166.6672 C.ar    1  UNL1        0.1401
     43 F         137.7084  138.7906  168.1223 F       1  UNL1       -0.2042
     44 C         138.4088  137.5322  165.9598 C.ar    1  UNL1        0.0293
     45 C         138.7724  137.5530  164.5047 C.ar    1  UNL1       -0.0017
@<TRIPOS>BOND
     1    16    17    1
     2    17    18    1
     3    17    19    1
     4    17     8    1
     5     8     9   ar
     6     9    10   ar
     7    10     7    1
     8     7     2    1
     9     2     3    1
    10     3     4    1
    11     4     5    1
    12     5     1    1
    13     1    24    1
    14    24    26    1
    15    26    27    1
    16    27    28    1
    17    28    29    1
    18    29    30    1
    19    30    31    1
    20    31    32    1
    21    32    33   ar
    22    33    34   ar
    23    34    35   ar
    24    35    36    1
    25    35    37   ar
    26    37    38   ar
    27    31    39    1
    28    39    40   ar
    29    40    41   ar
    30    41    42   ar
    31    42    43    1
    32    42    44   ar
    33    44    45   ar
    34     5     6    1
    35    10    11   ar
    36    11    12   ar
    37    12    20    1
    38    20    21    1
    39    20    22    1
    40    20    23    1
    41    12    13   ar
    42    13    14    1
    43    13     8   ar
    44     6     2    1
    45    38    32   ar
    46    45    39   ar
    47    24    25    1
    48    14    15    1
@<TRIPOS>MOLECULE
*****
 45 48 0 0 0
SMALL
GASTEIGER

@<TRIPOS>ATOM
      1 C         137.6766  139.8711  159.9285 C.3     1  UNL1        0.0700
      2 N         138.0594  140.0075  163.7886 N.3     1  UNL1       -0.2689
      3 C         137.8274  141.4546  163.4690 C.3     1  UNL1        0.0725
      4 C         137.6558  141.5797  161.9841 C.3     1  UNL1        0.0201
      5 C         137.7817  140.2098  161.3860 C.3     1  UNL1        0.0331
      6 C         138.0311  139.2382  162.5012 C.3     1  UNL1        0.0738
      7 C         138.2808  139.4309  165.1555 C.3     1  UNL1        0.0991
      8 C         140.6297  140.7886  168.0520 C.ar    1  UNL1        0.0103
      9 C         139.3951  140.4318  167.2785 C.ar    1  UNL1       -0.0042
     10 C         139.5155  139.7878  165.9291 C.ar    1  UNL1       -0.0066
     11 C         140.8704  139.5007  165.3532 C.ar    1  UNL1       -0.0042
     12 C         142.1050  139.8576  166.1268 C.ar    1  UNL1        0.0103
     13 C         141.9847  140.5015  167.4762 C.ar    1  UNL1        0.1255
     14 O         143.2193  140.8584  168.2497 O.3     1  UNL1       -0.5061
     15 H         144.0657  140.6790  167.8900 H       1  UNL1        0.2922
     16 C         140.4890  140.0783  170.0459 C.3     1  UNL1        0.0045
     17 C         140.5094  141.4326  169.4014 C.3     1  UNL1        0.0218
     18 C         140.5297  142.7869  168.7569 C.3     1  UNL1        0.0045
     19 C         140.3890  142.0765  170.7508 C.3     1  UNL1        0.0045
     20 C         143.4601  139.5705  165.5509 C.3     1  UNL1        0.0218
     21 C         143.3994  138.1770  166.1028 C.3     1  UNL1        0.0045
     22 C         143.5207  140.9639  164.9991 C.3     1  UNL1        0.0045
     23 C         144.8150  139.2834  164.9751 C.3     1  UNL1        0.0045
     24 N         138.9187  139.6267  159.1238 N.3     1  UNL1       -0.2974
     25 H         138.8484  138.6785  158.7545 H       1  UNL1        0.1232
     26 C         139.2491  140.5195  157.9646 C.3     1  UNL1        0.0686
     27 C         140.1822  141.6786  158.1528 C.3     1  UNL1        0.0171
     28 C         139.7691  142.8436  159.0028 C.3     1  UNL1        0.0014
     29 C         140.7110  143.9926  159.2093 C.3     1  UNL1        0.0007
     30 C         141.8015  143.8936  160.2345 C.3     1  UNL1        0.0087
     31 C         141.6055  143.0496  161.4590 C.3     1  UNL1        0.0446
     32 C         140.8116  143.5797  162.6159 C.ar    1  UNL1       -0.0183
     33 C         139.7088  144.5685  162.3785 C.ar    1  UNL1       -0.0017
     34 C         138.9148  145.0987  163.5355 C.ar    1  UNL1        0.0293
     35 C         139.2236  144.6401  164.9299 C.ar    1  UNL1        0.1401
     36 F         138.4296  145.1703  166.0868 F       1  UNL1       -0.2042
     37 C         140.3264  143.6513  165.1673 C.ar    1  UNL1        0.0293
     38 C         141.1203  143.1212  164.0103 C.ar    1  UNL1       -0.0017
     39 C         142.2033  141.6756  161.5264 C.ar    1  UNL1       -0.0183
     40 C         143.6852  141.4945  161.3811 C.ar    1  UNL1       -0.0017
     41 C         144.2831  140.1204  161.4485 C.ar    1  UNL1        0.0293
     42 C         143.3991  138.9275  161.6613 C.ar    1  UNL1        0.1401
     43 F         143.9969  137.5534  161.7287 F       1  UNL1       -0.2042
     44 C         141.9171  139.1086  161.8066 C.ar    1  UNL1        0.0293
     45 C         141.3192  140.4826  161.7392 C.ar    1  UNL1       -0.0017
@<TRIPOS>BOND
     1    16    17    1
     2    17    18    1
     3    17    19    1
     4    17     8    1
     5     8     9   ar
     6     9    10   ar
     7    10     7    1
     8     7     2    1
     9     2     3    1
    10     3     4    1
    11     4     5    1
    12     5     1    1
    13     1    24    1
    14    24    26    1
    15    26    27    1
    16    27    28    1
    17    28    29    1
    18    29    30    1
    19    30    31    1
    20    31    32    1
    21    32    33   ar
    22    33    34   ar
    23    34    35   ar
    24    35    36    1
    25    35    37   ar
    26    37    38   ar
    27    31    39    1
    28    39    40   ar
    29    40    41   ar
    30    41    42   ar
    31    42    43    1
    32    42    44   ar
    33    44    45   ar
    34     5     6    1
    35    10    11   ar
    36    11    12   ar
    37    12    20    1
    38    20    21    1
    39    20    22    1
    40    20    23    1
    41    12    13   ar
    42    13    14    1
    43    13     8   ar
    44     6     2    1
    45    38    32   ar
    46    45    39   ar
    47    24    25    1
    48    14    15    1
@<TRIPOS>MOLECULE
*****
 45 48 0 0 0
SMALL
GASTEIGER

@<TRIPOS>ATOM
      1 C         140.4653  145.4436  159.7213 C.3     1  UNL1        0.0700
      2 N         139.8889  144.4202  163.4208 N.3     1  UNL1       -0.2689
      3 C         141.3858  144.5040  163.3730 C.3     1  UNL1        0.0725
      4 C         141.7840  144.8975  161.9814 C.3     1  UNL1        0.0201
      5 C         140.5331  145.0570  161.1690 C.3     1  UNL1        0.0331
      6 C         139.3619  144.7620  162.0586 C.3     1  UNL1        0.0738
      7 C         139.0639  144.0582  164.6200 C.3     1  UNL1        0.0991
      8 C         140.7299  142.1437  167.6711 C.ar    1  UNL1        0.0103
      9 C         140.2894  143.2555  166.7657 C.ar    1  UNL1       -0.0042
     10 C         139.5044  142.9463  165.5255 C.ar    1  UNL1       -0.0066
     11 C         139.1598  141.5254  165.1907 C.ar    1  UNL1       -0.0042
     12 C         139.6002  140.4136  166.0961 C.ar    1  UNL1        0.0103
     13 C         140.3853  140.7227  167.3363 C.ar    1  UNL1        0.1255
     14 O         140.8258  139.6108  168.2418 O.3     1  UNL1       -0.5061
     15 H         140.6105  138.7232  168.0327 H       1  UNL1        0.2922
     16 C         140.2417  142.7686  169.6386 C.3     1  UNL1        0.0045
     17 C         141.5150  142.4528  168.9113 C.3     1  UNL1        0.0218
     18 C         142.7883  142.1371  168.1840 C.3     1  UNL1        0.0045
     19 C         142.3000  142.7620  170.1515 C.3     1  UNL1        0.0045
     20 C         139.2557  138.9925  165.7614 C.3     1  UNL1        0.0218
     21 C         140.5513  138.8533  165.0185 C.3     1  UNL1        0.0045
     22 C         137.9600  139.1318  166.5043 C.3     1  UNL1        0.0045
     23 C         138.9110  137.5716  165.4267 C.3     1  UNL1        0.0045
     24 N         141.7291  145.6418  158.9379 N.3     1  UNL1       -0.2974
     25 H         142.4539  145.8981  159.6083 H       1  UNL1        0.1232
     26 C         142.2821  144.5199  158.1101 C.3     1  UNL1        0.0686
     27 C         142.8926  143.3243  158.7793 C.3     1  UNL1        0.0171
     28 C         142.2225  141.9859  158.6805 C.3     1  UNL1        0.0014
     29 C         143.0379  140.7303  158.7733 C.3     1  UNL1        0.0007
     30 C         143.4847  140.2234  160.1125 C.3     1  UNL1        0.0087
     31 C         142.6635  140.5094  161.3348 C.3     1  UNL1        0.0446
     32 C         143.2481  141.3096  162.4607 C.ar    1  UNL1       -0.0183
     33 C         142.8085  141.0516  163.8714 C.ar    1  UNL1       -0.0017
     34 C         143.3932  141.8519  164.9975 C.ar    1  UNL1        0.0293
     35 C         144.4174  142.9101  164.7127 C.ar    1  UNL1        0.1401
     36 F         145.0021  143.7103  165.8387 F       1  UNL1       -0.2042
     37 C         144.8570  143.1681  163.3019 C.ar    1  UNL1        0.0293
     38 C         144.2723  142.3679  162.1759 C.ar    1  UNL1       -0.0017
     39 C         141.2577  139.9952  161.4311 C.ar    1  UNL1       -0.0183
     40 C         140.9922  138.5204  161.3629 C.ar    1  UNL1       -0.0017
     41 C         139.5864  138.0062  161.4592 C.ar    1  UNL1        0.0293
     42 C         138.4460  138.9667  161.6236 C.ar    1  UNL1        0.1401
     43 F         137.0402  138.4525  161.7199 F       1  UNL1       -0.2042
     44 C         138.7115  140.4415  161.6917 C.ar    1  UNL1        0.0293
     45 C         140.1173  140.9557  161.5954 C.ar    1  UNL1       -0.0017
@<TRIPOS>BOND
     1    16    17    1
     2    17    18    1
     3    17    19    1
     4    17     8    1
     5     8     9   ar
     6     9    10   ar
     7    10     7    1
     8     7     2    1
     9     2     3    1
    10     3     4    1
    11     4     5    1
    12     5     1    1
    13     1    24    1
    14    24    26    1
    15    26    27    1
    16    27    28    1
    17    28    29    1
    18    29    30    1
    19    30    31    1
    20    31    32    1
    21    32    33   ar
    22    33    34   ar
    23    34    35   ar
    24    35    36    1
    25    35    37   ar
    26    37    38   ar
    27    31    39    1
    28    39    40   ar
    29    40    41   ar
    30    41    42   ar
    31    42    43    1
    32    42    44   ar
    33    44    45   ar
    34     5     6    1
    35    10    11   ar
    36    11    12   ar
    37    12    20    1
    38    20    21    1
    39    20    22    1
    40    20    23    1
    41    12    13   ar
    42    13    14    1
    43    13     8   ar
    44     6     2    1
    45    38    32   ar
    46    45    39   ar
    47    24    25    1
    48    14    15    1
@<TRIPOS>MOLECULE
*****
 45 48 0 0 0
SMALL
GASTEIGER

@<TRIPOS>ATOM
      1 C         142.9695  137.8659  159.5337 C.3     1  UNL1        0.0700
      2 N         142.9312  138.4897  163.3645 N.3     1  UNL1       -0.2689
      3 C         144.1073  139.3219  162.9470 C.3     1  UNL1        0.0725
      4 C         144.2648  139.1896  161.4612 C.3     1  UNL1        0.0201
      5 C         143.1860  138.2755  160.9603 C.3     1  UNL1        0.0331
      6 C         142.3619  137.8430  162.1366 C.3     1  UNL1        0.0738
      7 C         142.4151  138.3319  164.7640 C.3     1  UNL1        0.0991
      8 C         141.3054  142.0495  165.5994 C.ar    1  UNL1        0.0103
      9 C         141.7700  140.8477  164.8315 C.ar    1  UNL1       -0.0042
     10 C         141.9505  139.5337  165.5321 C.ar    1  UNL1       -0.0066
     11 C         141.6663  139.4215  167.0006 C.ar    1  UNL1       -0.0042
     12 C         141.2016  140.6233  167.7685 C.ar    1  UNL1        0.0103
     13 C         141.0212  141.9373  167.0679 C.ar    1  UNL1        0.1255
     14 O         140.5566  143.1391  167.8359 O.3     1  UNL1       -0.5061
     15 H         140.3791  143.0690  168.7533 H       1  UNL1        0.2922
     16 C         142.6139  143.5103  164.7908 C.3     1  UNL1        0.0045
     17 C         141.1250  143.3635  164.8988 C.3     1  UNL1        0.0218
     18 C         139.6361  143.2167  165.0069 C.3     1  UNL1        0.0045
     19 C         140.9446  144.6775  164.1982 C.3     1  UNL1        0.0045
     20 C         140.9174  140.5111  169.2371 C.3     1  UNL1        0.0218
     21 C         139.4670  140.2726  168.9382 C.3     1  UNL1        0.0045
     22 C         142.3678  140.7496  169.5360 C.3     1  UNL1        0.0045
     23 C         140.6333  140.3989  170.7056 C.3     1  UNL1        0.0045
     24 N         143.3081  138.8139  158.4216 N.3     1  UNL1       -0.2974
     25 H         144.0399  138.3687  157.8678 H       1  UNL1        0.1232
     26 C         142.2438  139.2526  157.4599 C.3     1  UNL1        0.0686
     27 C         141.0642  140.0367  157.9533 C.3     1  UNL1        0.0171
     28 C         139.7550  139.3470  158.1996 C.3     1  UNL1        0.0014
     29 C         139.5455  138.5644  159.4620 C.3     1  UNL1        0.0007
     30 C         138.5514  139.0369  160.4811 C.3     1  UNL1        0.0087
     31 C         139.0051  139.8766  161.6383 C.3     1  UNL1        0.0446
     32 C         138.7672  139.4086  163.0433 C.ar    1  UNL1       -0.0183
     33 C         139.0306  137.9786  163.4121 C.ar    1  UNL1       -0.0017
     34 C         138.7927  137.5105  164.8173 C.ar    1  UNL1        0.0293
     35 C         138.2915  138.4723  165.8535 C.ar    1  UNL1        0.1401
     36 F         138.0537  138.0041  167.2586 F       1  UNL1       -0.2042
     37 C         138.0282  139.9022  165.4847 C.ar    1  UNL1        0.0293
     38 C         138.2661  140.3703  164.0795 C.ar    1  UNL1       -0.0017
     39 C         139.6966  141.1844  161.3903 C.ar    1  UNL1       -0.0183
     40 C         141.1909  141.2727  161.4863 C.ar    1  UNL1       -0.0017
     41 C         141.8825  142.5805  161.2384 C.ar    1  UNL1        0.0293
     42 C         141.0797  143.8000  160.8944 C.ar    1  UNL1        0.1401
     43 F         141.7712  145.1078  160.6464 F       1  UNL1       -0.2042
     44 C         139.5853  143.7117  160.7984 C.ar    1  UNL1        0.0293
     45 C         138.8938  142.4039  161.0463 C.ar    1  UNL1       -0.0017
@<TRIPOS>BOND
     1    16    17    1
     2    17    18    1
     3    17    19    1
     4    17     8    1
     5     8     9   ar
     6     9    10   ar
     7    10     7    1
     8     7     2    1
     9     2     3    1
    10     3     4    1
    11     4     5    1
    12     5     1    1
    13     1    24    1
    14    24    26    1
    15    26    27    1
    16    27    28    1
    17    28    29    1
    18    29    30    1
    19    30    31    1
    20    31    32    1
    21    32    33   ar
    22    33    34   ar
    23    34    35   ar
    24    35    36    1
    25    35    37   ar
    26    37    38   ar
    27    31    39    1
    28    39    40   ar
    29    40    41   ar
    30    41    42   ar
    31    42    43    1
    32    42    44   ar
    33    44    45   ar
    34     5     6    1
    35    10    11   ar
    36    11    12   ar
    37    12    20    1
    38    20    21    1
    39    20    22    1
    40    20    23    1
    41    12    13   ar
    42    13    14    1
    43    13     8   ar
    44     6     2    1
    45    38    32   ar
    46    45    39   ar
    47    24    25    1
    48    14    15    1
@<TRIPOS>MOLECULE
*****
 45 48 0 0 0
SMALL
GASTEIGER

@<TRIPOS>ATOM
      1 C         137.8084  140.0083  160.0649 C.3     1  UNL1        0.0700
      2 N         138.3989  138.8244  163.7140 N.3     1  UNL1       -0.2689
      3 C         138.9877  137.6825  162.9398 C.3     1  UNL1        0.0725
      4 C         138.8381  137.9869  161.4787 C.3     1  UNL1        0.0201
      5 C         138.1570  139.3171  161.3497 C.3     1  UNL1        0.0331
      6 C         137.8855  139.8347  162.7312 C.3     1  UNL1        0.0738
      7 C         138.3348  138.9365  165.2084 C.3     1  UNL1        0.0991
      8 C         140.3698  140.7005  168.1234 C.ar    1  UNL1        0.0103
      9 C         139.4658  139.7442  167.4035 C.ar    1  UNL1       -0.0042
     10 C         139.2389  139.8929  165.9283 C.ar    1  UNL1       -0.0066
     11 C         139.9159  140.9978  165.1729 C.ar    1  UNL1       -0.0042
     12 C         140.8199  141.9541  165.8927 C.ar    1  UNL1        0.0103
     13 C         141.0468  141.8055  167.3680 C.ar    1  UNL1        0.1255
     14 O         141.9509  142.7618  168.0879 O.3     1  UNL1       -0.5061
     15 H         142.3738  143.4520  167.6160 H       1  UNL1        0.2922
     16 C         139.3990  141.4134  169.8697 C.3     1  UNL1        0.0045
     17 C         140.5967  140.5519  169.5987 C.3     1  UNL1        0.0218
     18 C         141.7943  139.6904  169.3276 C.3     1  UNL1        0.0045
     19 C         140.8236  140.4033  171.0739 C.3     1  UNL1        0.0045
     20 C         141.4970  143.0591  165.1373 C.3     1  UNL1        0.0218
     21 C         142.7784  142.2793  165.1452 C.3     1  UNL1        0.0045
     22 C         140.2157  143.8388  165.1295 C.3     1  UNL1        0.0045
     23 C         142.1741  144.1640  164.3820 C.3     1  UNL1        0.0045
     24 N         138.4695  139.5902  158.7850 N.3     1  UNL1       -0.2974
     25 H         137.9558  140.0405  158.0275 H       1  UNL1        0.1232
     26 C         139.9223  139.8873  158.5593 C.3     1  UNL1        0.0686
     27 C         140.8956  138.7635  158.3604 C.3     1  UNL1        0.0171
     28 C         141.8668  138.4111  159.4479 C.3     1  UNL1        0.0014
     29 C         143.2747  138.9255  159.3918 C.3     1  UNL1        0.0007
     30 C         144.0335  139.1744  160.6615 C.3     1  UNL1        0.0087
     31 C         143.3824  139.9155  161.7914 C.3     1  UNL1        0.0446
     32 C         142.6283  141.1835  161.5207 C.ar    1  UNL1       -0.0183
     33 C         143.3531  142.3919  161.0066 C.ar    1  UNL1       -0.0017
     34 C         142.5989  143.6601  160.7359 C.ar    1  UNL1        0.0293
     35 C         141.1200  143.7197  160.9792 C.ar    1  UNL1        0.1401
     36 F         140.3659  144.9878  160.7085 F       1  UNL1       -0.2042
     37 C         140.3952  142.5112  161.4933 C.ar    1  UNL1        0.0293
     38 C         141.1493  141.2431  161.7641 C.ar    1  UNL1       -0.0017
     39 C         143.4853  139.3885  163.1920 C.ar    1  UNL1       -0.0183
     40 C         144.7541  139.5718  163.9709 C.ar    1  UNL1       -0.0017
     41 C         144.8571  139.0449  165.3716 C.ar    1  UNL1        0.0293
     42 C         143.6914  138.3346  165.9933 C.ar    1  UNL1        0.1401
     43 F         143.7943  137.8077  167.3939 F       1  UNL1       -0.2042
     44 C         142.4225  138.1513  165.2144 C.ar    1  UNL1        0.0293
     45 C         142.3196  138.6783  163.8138 C.ar    1  UNL1       -0.0017
@<TRIPOS>BOND
     1    16    17    1
     2    17    18    1
     3    17    19    1
     4    17     8    1
     5     8     9   ar
     6     9    10   ar
     7    10     7    1
     8     7     2    1
     9     2     3    1
    10     3     4    1
    11     4     5    1
    12     5     1    1
    13     1    24    1
    14    24    26    1
    15    26    27    1
    16    27    28    1
    17    28    29    1
    18    29    30    1
    19    30    31    1
    20    31    32    1
    21    32    33   ar
    22    33    34   ar
    23    34    35   ar
    24    35    36    1
    25    35    37   ar
    26    37    38   ar
    27    31    39    1
    28    39    40   ar
    29    40    41   ar
    30    41    42   ar
    31    42    43    1
    32    42    44   ar
    33    44    45   ar
    34     5     6    1
    35    10    11   ar
    36    11    12   ar
    37    12    20    1
    38    20    21    1
    39    20    22    1
    40    20    23    1
    41    12    13   ar
    42    13    14    1
    43    13     8   ar
    44     6     2    1
    45    38    32   ar
    46    45    39   ar
    47    24    25    1
    48    14    15    1
