@<TRIPOS>MOLECULE
*****
 37 41 0 0 0
SMALL
GASTEIGER

@<TRIPOS>ATOM
      1 C         143.3415  142.5349  167.3784 C.ar    1  UNL1        0.2221
      2 N         143.4666  142.7002  168.8640 N.ar    1  UNL1       -0.2119
      3 C         142.5487  141.9490  169.7822 C.ar    1  UNL1        0.1050
      4 C         141.5056  141.0325  169.2148 C.ar    1  UNL1        0.0596
      5 C         141.3805  140.8671  167.7292 C.ar    1  UNL1        0.1683
      6 N         142.2983  141.6183  166.8110 N.ar    1  UNL1       -0.1944
      7 N         140.3374  139.9506  167.1618 N.ar    1  UNL1       -0.2077
      8 C         140.3305  139.3723  165.7778 C.ar    1  UNL1        0.1401
      9 C         139.1069  138.5157  165.6394 C.ar    1  UNL1        0.1726
     10 C         138.3576  138.5646  166.9380 C.ar    1  UNL1        0.1147
     11 C         137.0733  137.8519  167.2423 C.3     1  UNL1        0.0573
     12 N         139.1181  139.4514  167.8789 N.ar    1  UNL1       -0.1649
     13 O         138.7035  137.7455  164.4172 O.3     1  UNL1       -0.4749
     14 C         139.5334  137.8286  163.1704 C.3     1  UNL1        0.1817
     15 C         138.9843  138.5015  161.9473 C.3     1  UNL1        0.0464
     16 C         139.8142  138.5846  160.7006 C.3     1  UNL1        0.0208
     17 C         141.1932  137.9948  160.6769 C.3     1  UNL1        0.0688
     18 N         141.7423  137.3219  161.9000 N.3     1  UNL1       -0.2945
     19 C         140.9123  137.2388  163.1467 C.3     1  UNL1        0.1126
     20 H         142.5988  137.8167  162.1488 H       1  UNL1        0.1234
     21 N         144.2594  143.2861  166.4602 N.pl3   1  UNL1       -0.2825
     22 H         144.9450  143.8864  166.8326 H       1  UNL1        0.1551
     23 C         141.7074  143.8624  161.8148 C.ar    1  UNL1        0.1554
     24 N         142.1352  143.4364  160.4417 N.ar    1  UNL1       -0.1646
     25 N         143.4774  142.7770  160.5581 N.ar    1  UNL1       -0.2487
     26 C         144.2774  142.2002  159.4279 C.3     1  UNL1        0.1537
     27 C         143.8792  142.7955  162.0032 C.ar    1  UNL1        0.0796
     28 C         145.0998  142.2881  162.7121 C.ar    1  UNL1        0.0201
     29 C         145.2265  142.4517  164.1977 C.ar    1  UNL1        0.0162
     30 C         144.1326  143.1225  164.9744 C.ar    1  UNL1        0.0506
     31 C         142.9120  143.6299  164.2655 C.ar    1  UNL1        0.0179
     32 C         142.7853  143.4663  162.7799 C.ar    1  UNL1        0.0423
     33 C         138.0405  144.5083  163.1885 C.3     1  UNL1        0.1110
     34 N         139.3213  143.8089  162.8414 N.am    1  UNL1       -0.2979
     35 C         140.4267  144.5618  162.1620 C.2     1  UNL1        0.2654
     36 O         140.2512  146.0139  161.8298 O.2     1  UNL1       -0.2684
     37 H         139.4364  142.8558  163.0594 H       1  UNL1        0.1498
@<TRIPOS>BOND
     1    33    34    1
     2    34    35   am
     3    35    36    2
     4    35    23    1
     5    23    24   ar
     6    24    25   ar
     7    25    26    1
     8    25    27   ar
     9    27    28   ar
    10    28    29   ar
    11    29    30   ar
    12    30    21    1
    13    21     1    1
    14     1     2   ar
    15     2     3   ar
    16     3     4   ar
    17     4     5   ar
    18     5     7    1
    19     7     8   ar
    20     8     9   ar
    21     9    13    1
    22    14    13    1
    23    14    15    1
    24    15    16    1
    25    16    17    1
    26    17    18    1
    27    18    19    1
    28     9    10   ar
    29    10    11    1
    30    10    12   ar
    31     5     6   ar
    32    30    31   ar
    33    31    32   ar
    34    32    23   ar
    35    32    27   ar
    36     6     1   ar
    37    12     7   ar
    38    19    14    1
    39    34    37    1
    40    21    22    1
    41    18    20    1
@<TRIPOS>MOLECULE
*****
 37 41 0 0 0
SMALL
GASTEIGER

@<TRIPOS>ATOM
      1 C         143.9770  140.5060  161.0228 C.ar    1  UNL1        0.2221
      2 N         144.1421  139.1843  160.3330 N.ar    1  UNL1       -0.2119
      3 C         143.6225  137.9326  160.9761 C.ar    1  UNL1        0.1050
      4 C         142.9378  138.0027  162.3089 C.ar    1  UNL1        0.0596
      5 C         142.7727  139.3244  162.9986 C.ar    1  UNL1        0.1683
      6 N         143.2923  140.5760  162.3557 N.ar    1  UNL1       -0.1944
      7 N         142.0881  139.3945  164.3314 N.ar    1  UNL1       -0.2077
      8 C         142.7632  139.5421  165.6628 C.ar    1  UNL1        0.1401
      9 C         141.7004  139.5681  166.7210 C.ar    1  UNL1        0.1726
     10 C         140.3685  139.4367  166.0437 C.ar    1  UNL1        0.1147
     11 C         139.0317  139.4161  166.7238 C.3     1  UNL1        0.0573
     12 N         140.6081  139.3294  164.5668 N.ar    1  UNL1       -0.1649
     13 O         141.9294  139.7021  168.1974 O.3     1  UNL1       -0.4749
     14 C         141.2439  140.7922  168.9668 C.3     1  UNL1        0.1817
     15 C         141.2271  142.1927  168.4297 C.3     1  UNL1        0.0464
     16 C         140.5416  143.2828  169.1991 C.3     1  UNL1        0.0208
     17 C         139.8731  142.9723  170.5055 C.3     1  UNL1        0.0688
     18 N         139.8899  141.5718  171.0425 N.3     1  UNL1       -0.2945
     19 C         140.5754  140.4817  170.2731 C.3     1  UNL1        0.1126
     20 H         138.9167  141.2871  171.1530 H       1  UNL1        0.1234
     21 N         144.4965  141.7576  160.3798 N.pl3   1  UNL1       -0.2825
     22 H         145.4638  141.9407  160.3696 H       1  UNL1        0.1551
     23 C         140.2841  145.0238  160.4843 C.ar    1  UNL1        0.1554
     24 N         139.7128  145.8659  159.3822 N.ar    1  UNL1       -0.1646
     25 N         140.5472  145.6506  158.1544 N.ar    1  UNL1       -0.2487
     26 C         140.3324  146.2969  156.8179 C.3     1  UNL1        0.1537
     27 C         141.6341  144.6754  158.4977 C.ar    1  UNL1        0.0796
     28 C         142.7508  144.0902  157.6851 C.ar    1  UNL1        0.0201
     29 C         143.7050  143.1176  158.3125 C.ar    1  UNL1        0.0162
     30 C         143.5423  142.7303  159.7525 C.ar    1  UNL1        0.0506
     31 C         142.4256  143.3155  160.5650 C.ar    1  UNL1        0.0179
     32 C         141.4715  144.2881  159.9376 C.ar    1  UNL1        0.0423
     33 C         137.8711  144.2749  163.5449 C.3     1  UNL1        0.1110
     34 N         138.3952  144.3654  162.1423 N.am    1  UNL1       -0.2979
     35 C         139.7599  144.9333  161.8868 C.2     1  UNL1        0.2654
     36 O         140.6003  145.4107  163.0338 O.2     1  UNL1       -0.2684
     37 H         137.8436  144.0521  161.3895 H       1  UNL1        0.1498
@<TRIPOS>BOND
     1    33    34    1
     2    34    35   am
     3    35    36    2
     4    35    23    1
     5    23    24   ar
     6    24    25   ar
     7    25    26    1
     8    25    27   ar
     9    27    28   ar
    10    28    29   ar
    11    29    30   ar
    12    30    21    1
    13    21     1    1
    14     1     2   ar
    15     2     3   ar
    16     3     4   ar
    17     4     5   ar
    18     5     7    1
    19     7     8   ar
    20     8     9   ar
    21     9    13    1
    22    14    13    1
    23    14    15    1
    24    15    16    1
    25    16    17    1
    26    17    18    1
    27    18    19    1
    28     9    10   ar
    29    10    11    1
    30    10    12   ar
    31     5     6   ar
    32    30    31   ar
    33    31    32   ar
    34    32    23   ar
    35    32    27   ar
    36     6     1   ar
    37    12     7   ar
    38    19    14    1
    39    34    37    1
    40    21    22    1
    41    18    20    1
@<TRIPOS>MOLECULE
*****
 37 41 0 0 0
SMALL
GASTEIGER

@<TRIPOS>ATOM
      1 C         142.5356  138.2942  160.6096 C.ar    1  UNL1        0.2221
      2 N         143.0043  137.6140  159.3576 N.ar    1  UNL1       -0.2119
      3 C         142.8572  138.2996  158.0315 C.ar    1  UNL1        0.1050
      4 C         142.2413  139.6653  157.9575 C.ar    1  UNL1        0.0596
      5 C         141.7725  140.3455  159.2096 C.ar    1  UNL1        0.1683
      6 N         141.9196  139.6600  160.5356 N.ar    1  UNL1       -0.1944
      7 N         141.1566  141.7112  159.1356 N.ar    1  UNL1       -0.2077
      8 C         140.5506  142.4682  160.2800 C.ar    1  UNL1        0.1401
      9 C         140.0580  143.7846  159.7559 C.ar    1  UNL1        0.1726
     10 C         140.3597  143.8410  158.2876 C.ar    1  UNL1        0.1147
     11 C         140.0387  144.9791  157.3647 C.3     1  UNL1        0.0573
     12 N         141.0386  142.5596  157.9043 N.ar    1  UNL1       -0.1649
     13 O         139.3825  144.8563  160.5591 O.3     1  UNL1       -0.4749
     14 C         139.3217  144.7475  162.0539 C.3     1  UNL1        0.1817
     15 C         138.0850  144.2184  162.7178 C.3     1  UNL1        0.0464
     16 C         138.0242  144.1096  164.2126 C.3     1  UNL1        0.0208
     17 C         139.2002  144.5298  165.0436 C.3     1  UNL1        0.0688
     18 N         140.4370  145.0589  164.3797 N.3     1  UNL1       -0.2945
     19 C         140.4977  145.1677  162.8849 C.3     1  UNL1        0.1126
     20 H         141.2058  144.4509  164.6622 H       1  UNL1        0.1234
     21 N         142.6827  137.6087  161.9357 N.pl3   1  UNL1       -0.2825
     22 H         143.3300  136.8744  162.0411 H       1  UNL1        0.1551
     23 C         141.4543  140.8996  165.9462 C.ar    1  UNL1        0.1554
     24 N         140.3262  140.8106  166.9308 N.ar    1  UNL1       -0.1646
     25 N         139.5297  139.5800  166.6130 N.ar    1  UNL1       -0.2487
     26 C         138.3112  139.1043  167.3473 C.3     1  UNL1        0.1537
     27 C         140.1655  138.9084  165.4320 C.ar    1  UNL1        0.0796
     28 C         139.8151  137.6595  164.6787 C.ar    1  UNL1        0.0201
     29 C         140.6541  137.2263  163.5133 C.ar    1  UNL1        0.0162
     30 C         141.8436  138.0420  163.1012 C.ar    1  UNL1        0.0506
     31 C         142.1941  139.2908  163.8545 C.ar    1  UNL1        0.0179
     32 C         141.3551  139.7240  165.0199 C.ar    1  UNL1        0.0423
     33 C         143.7778  143.8101  164.5746 C.3     1  UNL1        0.1110
     34 N         142.7336  142.7343  164.6242 N.am    1  UNL1       -0.2979
     35 C         142.4985  141.9754  165.8966 C.2     1  UNL1        0.2654
     36 O         143.3074  142.2925  167.1193 O.2     1  UNL1       -0.2684
     37 H         142.2027  142.5262  163.8217 H       1  UNL1        0.1498
@<TRIPOS>BOND
     1    33    34    1
     2    34    35   am
     3    35    36    2
     4    35    23    1
     5    23    24   ar
     6    24    25   ar
     7    25    26    1
     8    25    27   ar
     9    27    28   ar
    10    28    29   ar
    11    29    30   ar
    12    30    21    1
    13    21     1    1
    14     1     2   ar
    15     2     3   ar
    16     3     4   ar
    17     4     5   ar
    18     5     7    1
    19     7     8   ar
    20     8     9   ar
    21     9    13    1
    22    14    13    1
    23    14    15    1
    24    15    16    1
    25    16    17    1
    26    17    18    1
    27    18    19    1
    28     9    10   ar
    29    10    11    1
    30    10    12   ar
    31     5     6   ar
    32    30    31   ar
    33    31    32   ar
    34    32    23   ar
    35    32    27   ar
    36     6     1   ar
    37    12     7   ar
    38    19    14    1
    39    34    37    1
    40    21    22    1
    41    18    20    1
@<TRIPOS>MOLECULE
*****
 37 41 0 0 0
SMALL
GASTEIGER

@<TRIPOS>ATOM
      1 C         138.8133  143.2579  161.4888 C.ar    1  UNL1        0.2221
      2 N         138.7890  144.7097  161.8652 N.ar    1  UNL1       -0.2119
      3 C         138.8076  145.1101  163.3107 C.ar    1  UNL1        0.1050
      4 C         138.8504  144.0587  164.3797 C.ar    1  UNL1        0.0596
      5 C         138.8748  142.6069  164.0033 C.ar    1  UNL1        0.1683
      6 N         138.8562  142.2065  162.5579 N.ar    1  UNL1       -0.1944
      7 N         138.9177  141.5556  165.0723 N.ar    1  UNL1       -0.2077
      8 C         139.8316  141.5443  166.2617 C.ar    1  UNL1        0.1401
      9 C         139.5329  140.3127  167.0641 C.ar    1  UNL1        0.1726
     10 C         138.4344  139.5628  166.3706 C.ar    1  UNL1        0.1147
     11 C         137.8234  138.2714  166.8278 C.3     1  UNL1        0.0573
     12 N         138.0541  140.3310  165.1396 N.ar    1  UNL1       -0.1649
     13 O         140.2133  139.9028  168.3365 O.3     1  UNL1       -0.4749
     14 C         141.0771  140.8825  169.0743 C.3     1  UNL1        0.1817
     15 C         142.5438  140.9660  168.7712 C.3     1  UNL1        0.0464
     16 C         143.4075  141.9456  169.5090 C.3     1  UNL1        0.0208
     17 C         142.8046  142.8417  170.5499 C.3     1  UNL1        0.0688
     18 N         141.3378  142.7582  170.8530 N.3     1  UNL1       -0.2945
     19 C         140.4741  141.7786  170.1152 C.3     1  UNL1        0.1126
     20 H         140.9479  143.6844  170.6784 H       1  UNL1        0.1234
     21 N         138.7947  142.8574  160.0434 N.pl3   1  UNL1       -0.2825
     22 H         138.1486  143.2709  159.4263 H       1  UNL1        0.1551
     23 C         143.5093  140.3681  160.0201 C.ar    1  UNL1        0.1554
     24 N         143.9738  139.2306  159.1597 N.ar    1  UNL1       -0.1646
     25 N         142.8509  138.8587  158.2372 N.ar    1  UNL1       -0.2487
     26 C         142.8812  137.7702  157.2056 C.3     1  UNL1        0.1537
     27 C         141.6925  139.7663  158.5276 C.ar    1  UNL1        0.0796
     28 C         140.3197  139.8637  157.9310 C.ar    1  UNL1        0.0201
     29 C         139.3538  140.8941  158.4362 C.ar    1  UNL1        0.0162
     30 C         139.7607  141.8270  159.5381 C.ar    1  UNL1        0.0506
     31 C         141.1335  141.7295  160.1348 C.ar    1  UNL1        0.0179
     32 C         142.0994  140.6991  159.6295 C.ar    1  UNL1        0.0423
     33 C         145.4783  141.0062  163.4063 C.3     1  UNL1        0.1110
     34 N         144.6741  140.3202  162.3420 N.am    1  UNL1       -0.2979
     35 C         144.3134  141.0541  161.0844 C.2     1  UNL1        0.2654
     36 O         144.7570  142.4739  160.8912 O.2     1  UNL1       -0.2684
     37 H         144.3831  139.3883  162.4688 H       1  UNL1        0.1498
@<TRIPOS>BOND
     1    33    34    1
     2    34    35   am
     3    35    36    2
     4    35    23    1
     5    23    24   ar
     6    24    25   ar
     7    25    26    1
     8    25    27   ar
     9    27    28   ar
    10    28    29   ar
    11    29    30   ar
    12    30    21    1
    13    21     1    1
    14     1     2   ar
    15     2     3   ar
    16     3     4   ar
    17     4     5   ar
    18     5     7    1
    19     7     8   ar
    20     8     9   ar
    21     9    13    1
    22    14    13    1
    23    14    15    1
    24    15    16    1
    25    16    17    1
    26    17    18    1
    27    18    19    1
    28     9    10   ar
    29    10    11    1
    30    10    12   ar
    31     5     6   ar
    32    30    31   ar
    33    31    32   ar
    34    32    23   ar
    35    32    27   ar
    36     6     1   ar
    37    12     7   ar
    38    19    14    1
    39    34    37    1
    40    21    22    1
    41    18    20    1
@<TRIPOS>MOLECULE
*****
 37 41 0 0 0
SMALL
GASTEIGER

@<TRIPOS>ATOM
      1 C         138.8661  138.2900  162.0388 C.ar    1  UNL1        0.2221
      2 N         137.6759  139.1352  161.6938 N.ar    1  UNL1       -0.2119
      3 C         137.6158  139.8423  160.3722 C.ar    1  UNL1        0.1050
      4 C         138.7460  139.7043  159.3957 C.ar    1  UNL1        0.0596
      5 C         139.9363  138.8592  159.7407 C.ar    1  UNL1        0.1683
      6 N         139.9964  138.1521  161.0622 N.ar    1  UNL1       -0.1944
      7 N         141.0664  138.7212  158.7642 N.ar    1  UNL1       -0.2077
      8 C         141.7009  137.4345  158.3260 C.ar    1  UNL1        0.1401
      9 C         142.7872  137.7637  157.3454 C.ar    1  UNL1        0.1726
     10 C         142.8241  139.2539  157.1776 C.ar    1  UNL1        0.1147
     11 C         143.7602  140.0181  156.2889 C.3     1  UNL1        0.0573
     12 N         141.7606  139.8456  158.0545 N.ar    1  UNL1       -0.1649
     13 O         143.6798  136.7762  156.6541 O.3     1  UNL1       -0.4749
     14 C         143.2479  135.3469  156.5107 C.3     1  UNL1        0.1817
     15 C         142.5967  134.8840  155.2411 C.3     1  UNL1        0.0464
     16 C         142.1647  133.4547  155.0977 C.3     1  UNL1        0.0208
     17 C         142.3840  132.4883  156.2237 C.3     1  UNL1        0.0688
     18 N         143.0352  132.9513  157.4933 N.3     1  UNL1       -0.2945
     19 C         143.4672  134.3806  157.6367 C.3     1  UNL1        0.1126
     20 H         143.8685  132.3774  157.6231 H       1  UNL1        0.1234
     21 N         138.9262  137.5829  163.3603 N.pl3   1  UNL1       -0.2825
     22 H         138.7713  136.6118  163.4064 H       1  UNL1        0.1551
     23 C         141.9076  140.8515  166.3355 C.ar    1  UNL1        0.1554
     24 N         141.6619  141.3498  167.7288 N.ar    1  UNL1       -0.1646
     25 N         140.3684  140.7620  168.2098 N.ar    1  UNL1       -0.2487
     26 C         139.7390  140.9950  169.5514 C.3     1  UNL1        0.1537
     27 C         139.8147  139.9004  167.1139 C.ar    1  UNL1        0.0796
     28 C         138.5673  139.0727  167.0211 C.ar    1  UNL1        0.0201
     29 C         138.2711  138.3002  165.7699 C.ar    1  UNL1        0.0162
     30 C         139.2225  138.3555  164.6115 C.ar    1  UNL1        0.0506
     31 C         140.4699  139.1832  164.7043 C.ar    1  UNL1        0.0179
     32 C         140.7660  139.9557  165.9555 C.ar    1  UNL1        0.0423
     33 C         145.1647  140.4364  164.1062 C.3     1  UNL1        0.1110
     34 N         143.9846  140.0984  164.9682 N.am    1  UNL1       -0.2979
     35 C         143.0878  141.1895  165.4735 C.2     1  UNL1        0.2654
     36 O         143.3712  142.6186  165.1168 O.2     1  UNL1       -0.2684
     37 H         143.7986  139.1604  165.2023 H       1  UNL1        0.1498
@<TRIPOS>BOND
     1    33    34    1
     2    34    35   am
     3    35    36    2
     4    35    23    1
     5    23    24   ar
     6    24    25   ar
     7    25    26    1
     8    25    27   ar
     9    27    28   ar
    10    28    29   ar
    11    29    30   ar
    12    30    21    1
    13    21     1    1
    14     1     2   ar
    15     2     3   ar
    16     3     4   ar
    17     4     5   ar
    18     5     7    1
    19     7     8   ar
    20     8     9   ar
    21     9    13    1
    22    14    13    1
    23    14    15    1
    24    15    16    1
    25    16    17    1
    26    17    18    1
    27    18    19    1
    28     9    10   ar
    29    10    11    1
    30    10    12   ar
    31     5     6   ar
    32    30    31   ar
    33    31    32   ar
    34    32    23   ar
    35    32    27   ar
    36     6     1   ar
    37    12     7   ar
    38    19    14    1
    39    34    37    1
    40    21    22    1
    41    18    20    1
@<TRIPOS>MOLECULE
*****
 37 41 0 0 0
SMALL
GASTEIGER

@<TRIPOS>ATOM
      1 C         142.1523  144.3601  161.6450 C.ar    1  UNL1        0.2221
      2 N         143.6464  144.2358  161.5996 N.ar    1  UNL1       -0.2119
      3 C         144.3459  143.2630  162.5021 C.ar    1  UNL1        0.1050
      4 C         143.5512  142.4145  163.4500 C.ar    1  UNL1        0.0596
      5 C         142.0570  142.5389  163.4954 C.ar    1  UNL1        0.1683
      6 N         141.3576  143.5116  162.5930 N.ar    1  UNL1       -0.1944
      7 N         141.2623  141.6904  164.4433 N.ar    1  UNL1       -0.2077
      8 C         141.7200  141.2030  165.7861 C.ar    1  UNL1        0.1401
      9 C         140.6110  140.3917  166.3875 C.ar    1  UNL1        0.1726
     10 C         139.4677  140.3778  165.4165 C.ar    1  UNL1        0.1147
     11 C         138.1528  139.6832  165.6126 C.3     1  UNL1        0.0573
     12 N         139.8703  141.1804  164.2149 N.ar    1  UNL1       -0.1649
     13 O         140.6400  139.7135  167.7251 O.3     1  UNL1       -0.4749
     14 C         140.5874  140.5309  168.9818 C.3     1  UNL1        0.1817
     15 C         140.3113  142.0035  168.9077 C.3     1  UNL1        0.0464
     16 C         140.2588  142.8209  170.1643 C.3     1  UNL1        0.0208
     17 C         140.4823  142.1657  171.4950 C.3     1  UNL1        0.0688
     18 N         140.7583  140.6931  171.5691 N.3     1  UNL1       -0.2945
     19 C         140.8109  139.8758  170.3125 C.3     1  UNL1        0.1126
     20 H         140.0293  140.2860  172.1549 H       1  UNL1        0.1234
     21 N         141.4528  145.3329  160.7426 N.pl3   1  UNL1       -0.2825
     22 H         141.3321  146.2680  161.0260 H       1  UNL1        0.1551
     23 C         139.3487  146.1923  155.9200 C.ar    1  UNL1        0.1554
     24 N         138.9968  145.2003  154.8513 N.ar    1  UNL1       -0.1646
     25 N         139.3417  143.8313  155.3581 N.ar    1  UNL1       -0.2487
     26 C         139.1544  142.5425  154.6137 C.3     1  UNL1        0.1537
     27 C         139.9066  143.9772  156.7400 C.ar    1  UNL1        0.0796
     28 C         140.4177  142.9699  157.7269 C.ar    1  UNL1        0.0201
     29 C         140.9331  143.4218  159.0611 C.ar    1  UNL1        0.0162
     30 C         140.9374  144.8810  159.4083 C.ar    1  UNL1        0.0506
     31 C         140.4264  145.8883  158.4214 C.ar    1  UNL1        0.0179
     32 C         139.9110  145.4364  157.0872 C.ar    1  UNL1        0.0423
     33 C         138.3799  149.9140  156.9003 C.3     1  UNL1        0.1110
     34 N         138.5589  148.4271  156.9841 N.am    1  UNL1       -0.2979
     35 C         139.1697  147.6792  155.8361 C.2     1  UNL1        0.2654
     36 O         139.6014  148.4184  154.6045 O.2     1  UNL1       -0.2684
     37 H         138.2755  147.9420  157.7926 H       1  UNL1        0.1498
@<TRIPOS>BOND
     1    33    34    1
     2    34    35   am
     3    35    36    2
     4    35    23    1
     5    23    24   ar
     6    24    25   ar
     7    25    26    1
     8    25    27   ar
     9    27    28   ar
    10    28    29   ar
    11    29    30   ar
    12    30    21    1
    13    21     1    1
    14     1     2   ar
    15     2     3   ar
    16     3     4   ar
    17     4     5   ar
    18     5     7    1
    19     7     8   ar
    20     8     9   ar
    21     9    13    1
    22    14    13    1
    23    14    15    1
    24    15    16    1
    25    16    17    1
    26    17    18    1
    27    18    19    1
    28     9    10   ar
    29    10    11    1
    30    10    12   ar
    31     5     6   ar
    32    30    31   ar
    33    31    32   ar
    34    32    23   ar
    35    32    27   ar
    36     6     1   ar
    37    12     7   ar
    38    19    14    1
    39    34    37    1
    40    21    22    1
    41    18    20    1
@<TRIPOS>MOLECULE
*****
 37 41 0 0 0
SMALL
GASTEIGER

@<TRIPOS>ATOM
      1 C         140.2846  139.0403  160.7950 C.ar    1  UNL1        0.2221
      2 N         141.6547  138.4476  160.6490 N.ar    1  UNL1       -0.2119
      3 C         142.3895  137.9502  161.8585 C.ar    1  UNL1        0.1050
      4 C         141.7541  138.0456  163.2139 C.ar    1  UNL1        0.0596
      5 C         140.3839  138.6384  163.3599 C.ar    1  UNL1        0.1683
      6 N         139.6492  139.1357  162.1505 N.ar    1  UNL1       -0.1944
      7 N         139.7485  138.7338  164.7153 N.ar    1  UNL1       -0.2077
      8 C         140.2369  139.5697  165.8611 C.ar    1  UNL1        0.1401
      9 C         139.3034  139.3626  167.0168 C.ar    1  UNL1        0.1726
     10 C         138.2381  138.3987  166.5853 C.ar    1  UNL1        0.1147
     11 C         137.0979  137.9093  167.4282 C.3     1  UNL1        0.0573
     12 N         138.5133  138.0101  165.1628 N.ar    1  UNL1       -0.1649
     13 O         139.4155  140.0063  168.3670 O.3     1  UNL1       -0.4749
     14 C         140.7335  140.5523  168.8305 C.3     1  UNL1        0.1817
     15 C         141.0558  142.0037  168.6313 C.3     1  UNL1        0.0464
     16 C         142.3738  142.5497  169.0948 C.3     1  UNL1        0.0208
     17 C         143.3694  141.6444  169.7575 C.3     1  UNL1        0.0688
     18 N         143.0470  140.1930  169.9568 N.3     1  UNL1       -0.2945
     19 C         141.7290  139.6470  169.4933 C.3     1  UNL1        0.1126
     20 H         143.1038  140.0137  170.9593 H       1  UNL1        0.1234
     21 N         139.5498  139.5377  159.5856 N.pl3   1  UNL1       -0.2825
     22 H         138.9671  138.9276  159.0782 H       1  UNL1        0.1551
     23 C         140.9996  144.6116  160.3452 C.ar    1  UNL1        0.1554
     24 N         140.8956  145.7757  159.4050 N.ar    1  UNL1       -0.1646
     25 N         140.2832  145.2855  158.1264 N.ar    1  UNL1       -0.2487
     26 C         139.9957  146.1165  156.9111 C.3     1  UNL1        0.1537
     27 C         140.0088  143.8185  158.2764 C.ar    1  UNL1        0.0796
     28 C         139.4130  142.8081  157.3415 C.ar    1  UNL1        0.0201
     29 C         139.2600  141.3812  157.7779 C.ar    1  UNL1        0.0162
     30 C         139.7028  140.9647  159.1492 C.ar    1  UNL1        0.0506
     31 C         140.2986  141.9751  160.0841 C.ar    1  UNL1        0.0179
     32 C         140.4516  143.4020  159.6477 C.ar    1  UNL1        0.0423
     33 C         143.5826  144.8688  163.3473 C.3     1  UNL1        0.1110
     34 N         143.0279  144.8301  161.9541 N.am    1  UNL1       -0.2979
     35 C         141.5544  144.6503  161.7383 C.2     1  UNL1        0.2654
     36 O         140.6357  144.5092  162.9156 O.2     1  UNL1       -0.2684
     37 H         143.6309  144.9228  161.1814 H       1  UNL1        0.1498
@<TRIPOS>BOND
     1    33    34    1
     2    34    35   am
     3    35    36    2
     4    35    23    1
     5    23    24   ar
     6    24    25   ar
     7    25    26    1
     8    25    27   ar
     9    27    28   ar
    10    28    29   ar
    11    29    30   ar
    12    30    21    1
    13    21     1    1
    14     1     2   ar
    15     2     3   ar
    16     3     4   ar
    17     4     5   ar
    18     5     7    1
    19     7     8   ar
    20     8     9   ar
    21     9    13    1
    22    14    13    1
    23    14    15    1
    24    15    16    1
    25    16    17    1
    26    17    18    1
    27    18    19    1
    28     9    10   ar
    29    10    11    1
    30    10    12   ar
    31     5     6   ar
    32    30    31   ar
    33    31    32   ar
    34    32    23   ar
    35    32    27   ar
    36     6     1   ar
    37    12     7   ar
    38    19    14    1
    39    34    37    1
    40    21    22    1
    41    18    20    1
@<TRIPOS>MOLECULE
*****
 37 41 0 0 0
SMALL
GASTEIGER

@<TRIPOS>ATOM
      1 C         143.6945  139.5421  159.9649 C.ar    1  UNL1        0.2221
      2 N         143.6579  138.7550  158.6885 N.ar    1  UNL1       -0.2119
      3 C         142.9042  139.2824  157.5036 C.ar    1  UNL1        0.1050
      4 C         142.1873  140.5967  157.5951 C.ar    1  UNL1        0.0596
      5 C         142.2239  141.3838  158.8715 C.ar    1  UNL1        0.1683
      6 N         142.9775  140.8565  160.0564 N.ar    1  UNL1       -0.1944
      7 N         141.5070  142.6981  158.9630 N.ar    1  UNL1       -0.2077
      8 C         140.8219  143.2459  160.1798 C.ar    1  UNL1        0.1401
      9 C         140.2407  144.5818  159.8227 C.ar    1  UNL1        0.1726
     10 C         140.5667  144.8597  158.3851 C.ar    1  UNL1        0.1147
     11 C         140.1782  146.0863  157.6141 C.3     1  UNL1        0.0573
     12 N         141.3492  143.6955  157.8538 N.ar    1  UNL1       -0.1649
     13 O         139.4692  145.4819  160.7417 O.3     1  UNL1       -0.4749
     14 C         139.3443  145.1392  162.1967 C.3     1  UNL1        0.1817
     15 C         138.0806  144.5195  162.7155 C.3     1  UNL1        0.0464
     16 C         137.9558  144.1768  164.1705 C.3     1  UNL1        0.0208
     17 C         139.0946  144.4538  165.1067 C.3     1  UNL1        0.0688
     18 N         140.3583  145.0735  164.5878 N.3     1  UNL1       -0.2945
     19 C         140.4832  145.4162  163.1328 C.3     1  UNL1        0.1126
     20 H         141.1148  144.4240  164.8033 H       1  UNL1        0.1234
     21 N         144.4481  139.0148  161.1498 N.pl3   1  UNL1       -0.2825
     22 H         145.2845  138.5125  161.0175 H       1  UNL1        0.1551
     23 C         140.6445  138.9015  164.8839 C.ar    1  UNL1        0.1554
     24 N         140.7132  139.3381  166.3173 N.ar    1  UNL1       -0.1646
     25 N         142.0987  139.8493  166.5802 N.ar    1  UNL1       -0.2487
     26 C         142.6074  140.3868  167.8849 C.3     1  UNL1        0.1537
     27 C         142.8862  139.7286  165.3093 C.ar    1  UNL1        0.0796
     28 C         144.3056  140.0764  164.9712 C.ar    1  UNL1        0.0201
     29 C         144.8262  139.8385  163.5847 C.ar    1  UNL1        0.0162
     30 C         143.9274  139.2527  162.5363 C.ar    1  UNL1        0.0506
     31 C         142.5081  138.9049  162.8744 C.ar    1  UNL1        0.0179
     32 C         141.9875  139.1428  164.2609 C.ar    1  UNL1        0.0423
     33 C         137.9307  138.1380  162.0905 C.3     1  UNL1        0.1110
     34 N         139.1316  138.7147  162.7799 N.am    1  UNL1       -0.2979
     35 C         139.4436  138.3248  164.1945 C.2     1  UNL1        0.2654
     36 O         138.5547  137.3584  164.9194 O.2     1  UNL1       -0.2684
     37 H         139.7150  139.3490  162.3041 H       1  UNL1        0.1498
@<TRIPOS>BOND
     1    33    34    1
     2    34    35   am
     3    35    36    2
     4    35    23    1
     5    23    24   ar
     6    24    25   ar
     7    25    26    1
     8    25    27   ar
     9    27    28   ar
    10    28    29   ar
    11    29    30   ar
    12    30    21    1
    13    21     1    1
    14     1     2   ar
    15     2     3   ar
    16     3     4   ar
    17     4     5   ar
    18     5     7    1
    19     7     8   ar
    20     8     9   ar
    21     9    13    1
    22    14    13    1
    23    14    15    1
    24    15    16    1
    25    16    17    1
    26    17    18    1
    27    18    19    1
    28     9    10   ar
    29    10    11    1
    30    10    12   ar
    31     5     6   ar
    32    30    31   ar
    33    31    32   ar
    34    32    23   ar
    35    32    27   ar
    36     6     1   ar
    37    12     7   ar
    38    19    14    1
    39    34    37    1
    40    21    22    1
    41    18    20    1
@<TRIPOS>MOLECULE
*****
 37 41 0 0 0
SMALL
GASTEIGER

@<TRIPOS>ATOM
      1 C         138.6400  139.6774  162.2624 C.ar    1  UNL1        0.2221
      2 N         138.4984  138.2299  162.6292 N.ar    1  UNL1       -0.2119
      3 C         139.3803  137.6344  163.6866 C.ar    1  UNL1        0.1050
      4 C         140.4036  138.4865  164.3770 C.ar    1  UNL1        0.0596
      5 C         140.5451  139.9340  164.0102 C.ar    1  UNL1        0.1683
      6 N         139.6634  140.5295  162.9529 N.ar    1  UNL1       -0.1944
      7 N         141.5684  140.7861  164.7006 N.ar    1  UNL1       -0.2077
      8 C         141.7105  140.9664  166.1830 C.ar    1  UNL1        0.1401
      9 C         142.8593  141.8992  166.4285 C.ar    1  UNL1        0.1726
     10 C         143.4271  142.2954  165.0978 C.ar    1  UNL1        0.1147
     11 C         144.5888  143.2177  164.8742 C.3     1  UNL1        0.0573
     12 N         142.6293  141.6075  164.0300 N.ar    1  UNL1       -0.1649
     13 O         143.3534  142.3557  167.7692 O.3     1  UNL1       -0.4749
     14 C         142.5702  142.0325  169.0070 C.3     1  UNL1        0.1817
     15 C         141.2973  142.7690  169.3028 C.3     1  UNL1        0.0464
     16 C         140.5141  142.4458  170.5407 C.3     1  UNL1        0.0208
     17 C         141.0038  141.3861  171.4826 C.3     1  UNL1        0.0688
     18 N         142.2766  140.6496  171.1868 N.3     1  UNL1       -0.2945
     19 C         143.0598  140.9728  169.9489 C.3     1  UNL1        0.1126
     20 H         142.0384  139.6592  171.1342 H       1  UNL1        0.1234
     21 N         137.7582  140.2729  161.2051 N.pl3   1  UNL1       -0.2825
     22 H         136.8140  140.0017  161.1415 H       1  UNL1        0.1551
     23 C         140.2389  144.8396  160.0155 C.ar    1  UNL1        0.1554
     24 N         140.5667  145.4149  158.6695 N.ar    1  UNL1       -0.1646
     25 N         140.0661  144.4627  157.6241 N.ar    1  UNL1       -0.2487
     26 C         140.1824  144.6427  156.1395 C.3     1  UNL1        0.1537
     27 C         139.4289  143.2990  158.3240 C.ar    1  UNL1        0.0796
     28 C         138.7653  142.0574  157.8064 C.ar    1  UNL1        0.0201
     29 C         138.2084  141.0487  158.7668 C.ar    1  UNL1        0.0162
     30 C         138.3152  141.2817  160.2447 C.ar    1  UNL1        0.0506
     31 C         138.9788  142.5233  160.7623 C.ar    1  UNL1        0.0179
     32 C         139.5357  143.5320  159.8019 C.ar    1  UNL1        0.0423
     33 C         141.9402  145.4871  163.5420 C.3     1  UNL1        0.1110
     34 N         141.6209  144.8641  162.2154 N.am    1  UNL1       -0.2979
     35 C         140.5582  145.4626  161.3421 C.2     1  UNL1        0.2654
     36 O         139.8149  146.6840  161.7955 O.2     1  UNL1       -0.2684
     37 H         142.1088  144.0625  161.9179 H       1  UNL1        0.1498
@<TRIPOS>BOND
     1    33    34    1
     2    34    35   am
     3    35    36    2
     4    35    23    1
     5    23    24   ar
     6    24    25   ar
     7    25    26    1
     8    25    27   ar
     9    27    28   ar
    10    28    29   ar
    11    29    30   ar
    12    30    21    1
    13    21     1    1
    14     1     2   ar
    15     2     3   ar
    16     3     4   ar
    17     4     5   ar
    18     5     7    1
    19     7     8   ar
    20     8     9   ar
    21     9    13    1
    22    14    13    1
    23    14    15    1
    24    15    16    1
    25    16    17    1
    26    17    18    1
    27    18    19    1
    28     9    10   ar
    29    10    11    1
    30    10    12   ar
    31     5     6   ar
    32    30    31   ar
    33    31    32   ar
    34    32    23   ar
    35    32    27   ar
    36     6     1   ar
    37    12     7   ar
    38    19    14    1
    39    34    37    1
    40    21    22    1
    41    18    20    1
