@<TRIPOS>MOLECULE
*****
 39 42 0 0 0
SMALL
GASTEIGER

@<TRIPOS>ATOM
      1 C         139.5574  139.1457  165.2209 C.ar    1  UNL1        0.0531
      2 C         139.8627  140.2994  164.3123 C.ar    1  UNL1        0.0167
      3 C         140.1488  140.0552  162.8602 C.ar    1  UNL1        0.0505
      4 C         140.1296  138.6573  162.3168 C.ar    1  UNL1        0.0170
      5 C         139.8244  137.5036  163.2254 C.ar    1  UNL1        0.0307
      6 C         139.5383  137.7478  164.6775 C.ar    1  UNL1        0.1402
      7 F         139.2330  136.5939  165.5861 F       1  UNL1       -0.2044
      8 C         140.6757  140.2587  169.1776 C.3     1  UNL1        0.2040
      9 C         140.3896  140.5029  170.6296 C.3     1  UNL1        0.0361
     10 C         141.4348  140.1608  167.8876 C.3     1  UNL1        0.0385
     11 C         140.7326  139.7264  166.6352 C.3     1  UNL1        0.0586
     12 C         139.2713  139.3899  166.6730 C.3     1  UNL1        0.2277
     13 N         138.5122  139.4878  167.9630 N.2     1  UNL1       -0.0699
     14 C         139.2143  139.9221  169.2153 C.2     1  UNL1        0.3086
     15 N         138.4553  140.0200  170.5053 N.pl3   1  UNL1       -0.2488
     16 H         137.4962  139.7992  170.5301 H       1  UNL1        0.2881
     17 H         138.9161  140.3051  171.3272 H       1  UNL1        0.2881
     18 S         142.0376  140.6800  169.6442 S.O2    1  UNL1       -0.0026
     19 O         141.5831  142.1090  169.6804 O.2     1  UNL1       -0.1725
     20 O         142.4920  139.2510  169.6078 O.2     1  UNL1       -0.1725
     21 C         143.9287  142.4582  169.7520 C.3     1  UNL1        0.0271
     22 C         143.3995  141.1013  170.1107 C.3     1  UNL1        0.1514
     23 C         137.9094  138.9686  166.2064 C.3     1  UNL1        0.2460
     24 F         137.0371  138.1331  167.0959 F       1  UNL1       -0.2293
     25 N         140.4540  141.2091  161.9516 N.am    1  UNL1       -0.2791
     26 C         139.3357  141.9639  161.2963 C.2     1  UNL1        0.2673
     27 O         137.9121  141.5650  161.5495 O.2     1  UNL1       -0.2682
     28 H         141.3884  141.4709  161.7853 H       1  UNL1        0.1552
     29 C         139.6410  143.1177  160.3876 C.ar    1  UNL1        0.1380
     30 C         139.4989  142.9609  158.9026 C.ar    1  UNL1        0.0641
     31 C         139.8042  144.1147  157.9941 C.ar    1  UNL1        0.1849
     32 C         140.2515  145.4253  158.5705 C.ar    1  UNL1        0.2007
     33 C         140.3935  145.5821  160.0554 C.ar    1  UNL1        0.1392
     34 N         140.0882  144.4283  160.9640 N.ar    1  UNL1       -0.2359
     35 O         140.4793  146.3777  157.4343 O.3     1  UNL1       -0.3932
     36 C         140.1729  145.6558  156.1556 C.3     1  UNL1        0.5892
     37 F         140.5422  146.9606  155.5144 F       1  UNL1       -0.1252
     38 F         139.9436  145.2066  154.7430 F       1  UNL1       -0.1252
     39 O         139.7556  144.2572  156.5016 O.3     1  UNL1       -0.3947
@<TRIPOS>BOND
     1    21    22    1
     2    22    18    1
     3    18    19    2
     4    18    20    2
     5    18     8    1
     6     8     9    1
     7     8    10    1
     8    10    11    1
     9    11    12    1
    10    12    23    1
    11    23    24    1
    12    12     1    1
    13     1     2   ar
    14     2     3   ar
    15     3    25    1
    16    25    26   am
    17    26    27    2
    18    26    29    1
    19    29    30   ar
    20    30    31   ar
    21    31    32   ar
    22    32    33   ar
    23    33    34   ar
    24    32    35    1
    25    35    36    1
    26    36    37    1
    27    36    38    1
    28    36    39    1
    29     3     4   ar
    30     4     5   ar
    31     5     6   ar
    32     6     7    1
    33    12    13    1
    34    13    14    2
    35    14    15    1
    36    14     8    1
    37     6     1   ar
    38    34    29   ar
    39    39    31    1
    40    25    28    1
    41    15    16    1
    42    15    17    1
@<TRIPOS>MOLECULE
*****
 39 42 0 0 0
SMALL
GASTEIGER

@<TRIPOS>ATOM
      1 C         140.3860  139.1063  164.2360 C.ar    1  UNL1        0.0531
      2 C         140.1306  140.1797  163.2199 C.ar    1  UNL1        0.0167
      3 C         140.5594  139.9821  161.7962 C.ar    1  UNL1        0.0505
      4 C         141.2437  138.7110  161.3885 C.ar    1  UNL1        0.0170
      5 C         141.4991  137.6376  162.4046 C.ar    1  UNL1        0.0307
      6 C         141.0702  137.8352  163.8283 C.ar    1  UNL1        0.1402
      7 F         141.3256  136.7617  164.8445 F       1  UNL1       -0.2044
      8 C         140.9698  140.4935  168.2208 C.3     1  UNL1        0.2040
      9 C         140.5410  140.6911  169.6446 C.3     1  UNL1        0.0361
     10 C         141.8170  140.5437  166.9840 C.3     1  UNL1        0.0385
     11 C         141.3106  139.9489  165.7034 C.3     1  UNL1        0.0586
     12 C         139.9571  139.3039  165.6597 C.3     1  UNL1        0.2277
     13 N         139.1100  139.2537  166.8965 N.2     1  UNL1       -0.0699
     14 C         139.6162  139.8484  168.1771 C.2     1  UNL1        0.3086
     15 N         138.7691  139.7982  169.4139 N.pl3   1  UNL1       -0.2488
     16 H         137.8807  139.3748  169.3852 H       1  UNL1        0.2881
     17 H         139.1014  140.1886  170.2544 H       1  UNL1        0.2881
     18 S         142.1744  141.2072  168.7591 S.O2    1  UNL1       -0.0026
     19 O         141.5020  142.5257  168.5154 O.2     1  UNL1       -0.1725
     20 O         142.8466  139.8886  169.0026 O.2     1  UNL1       -0.1725
     21 C         143.2186  142.9638  170.3633 C.3     1  UNL1        0.0271
     22 C         143.3789  141.9209  169.2973 C.3     1  UNL1        0.1514
     23 C         138.7526  138.5902  165.1215 C.3     1  UNL1        0.2460
     24 F         138.3320  137.2775  165.7132 F       1  UNL1       -0.2293
     25 N         140.3040  141.0556  160.7800 N.am    1  UNL1       -0.2791
     26 C         141.2847  142.1781  160.6122 C.2     1  UNL1        0.2673
     27 O         142.5209  142.2271  161.4604 O.2     1  UNL1       -0.2682
     28 H         139.4927  141.0234  160.2233 H       1  UNL1        0.1552
     29 C         141.0293  143.2516  159.5961 C.ar    1  UNL1        0.1380
     30 C         139.9896  143.0473  158.5344 C.ar    1  UNL1        0.0641
     31 C         139.7342  144.1207  157.5183 C.ar    1  UNL1        0.1849
     32 C         140.5185  145.3985  157.5640 C.ar    1  UNL1        0.2007
     33 C         141.5582  145.6029  158.6257 C.ar    1  UNL1        0.1392
     34 N         141.8136  144.5294  159.6418 N.ar    1  UNL1       -0.2359
     35 O         140.0497  146.2706  156.4372 O.3     1  UNL1       -0.3932
     36 C         138.9757  145.5319  155.6951 C.3     1  UNL1        0.5892
     37 F         138.9449  146.7598  154.8342 F       1  UNL1       -0.1252
     38 F         137.8953  145.0498  154.7731 F       1  UNL1       -0.1252
     39 O         138.7807  144.2032  156.3633 O.3     1  UNL1       -0.3947
@<TRIPOS>BOND
     1    21    22    1
     2    22    18    1
     3    18    19    2
     4    18    20    2
     5    18     8    1
     6     8     9    1
     7     8    10    1
     8    10    11    1
     9    11    12    1
    10    12    23    1
    11    23    24    1
    12    12     1    1
    13     1     2   ar
    14     2     3   ar
    15     3    25    1
    16    25    26   am
    17    26    27    2
    18    26    29    1
    19    29    30   ar
    20    30    31   ar
    21    31    32   ar
    22    32    33   ar
    23    33    34   ar
    24    32    35    1
    25    35    36    1
    26    36    37    1
    27    36    38    1
    28    36    39    1
    29     3     4   ar
    30     4     5   ar
    31     5     6   ar
    32     6     7    1
    33    12    13    1
    34    13    14    2
    35    14    15    1
    36    14     8    1
    37     6     1   ar
    38    34    29   ar
    39    39    31    1
    40    25    28    1
    41    15    16    1
    42    15    17    1
@<TRIPOS>MOLECULE
*****
 39 42 0 0 0
SMALL
GASTEIGER

@<TRIPOS>ATOM
      1 C         139.5985  142.9691  163.6502 C.ar    1  UNL1        0.0531
      2 C         140.3087  142.5400  162.4007 C.ar    1  UNL1        0.0167
      3 C         140.4861  143.5080  161.2687 C.ar    1  UNL1        0.0505
      4 C         139.9533  144.9052  161.3862 C.ar    1  UNL1        0.0170
      5 C         139.2430  145.3344  162.6357 C.ar    1  UNL1        0.0307
      6 C         139.0656  144.3663  163.7677 C.ar    1  UNL1        0.1402
      7 F         138.3553  144.7956  165.0172 F       1  UNL1       -0.2044
      8 C         140.4143  141.5203  167.5719 C.3     1  UNL1        0.2040
      9 C         140.2369  140.5523  168.7039 C.3     1  UNL1        0.0361
     10 C         140.9175  142.6966  166.7889 C.3     1  UNL1        0.0385
     11 C         140.4209  142.9370  165.3940 C.3     1  UNL1        0.0586
     12 C         139.4211  142.0011  164.7822 C.3     1  UNL1        0.2277
     13 N         138.9179  140.8248  165.5651 N.2     1  UNL1       -0.0699
     14 C         139.4144  140.5844  166.9600 C.2     1  UNL1        0.3086
     15 N         138.9112  139.4081  167.7429 N.pl3   1  UNL1       -0.2488
     16 H         138.2550  138.7938  167.3413 H       1  UNL1        0.2881
     17 H         139.2371  139.2503  168.6584 H       1  UNL1        0.2881
     18 S         141.3525  142.1200  168.5769 S.O2    1  UNL1       -0.0026
     19 O         140.3380  143.1789  168.8922 O.2     1  UNL1       -0.1725
     20 O         142.3670  141.0611  168.2616 O.2     1  UNL1       -0.1725
     21 C         143.7292  142.2956  169.6115 C.3     1  UNL1        0.0271
     22 C         142.2908  142.7197  169.5819 C.3     1  UNL1        0.1514
     23 C         138.4829  141.4014  163.7771 C.3     1  UNL1        0.2460
     24 F         137.0591  141.8685  163.7082 F       1  UNL1       -0.2293
     25 N         141.1964  143.0788  160.0191 N.am    1  UNL1       -0.2791
     26 C         142.6893  143.1923  159.9284 C.2     1  UNL1        0.2673
     27 O         143.4720  143.7352  161.0871 O.2     1  UNL1       -0.2682
     28 H         140.6827  142.7225  159.2586 H       1  UNL1        0.1552
     29 C         143.3996  142.7631  158.6788 C.ar    1  UNL1        0.1380
     30 C         144.8982  142.7913  158.6206 C.ar    1  UNL1        0.0641
     31 C         145.6084  142.3621  157.3711 C.ar    1  UNL1        0.1849
     32 C         144.8201  141.9047  156.1798 C.ar    1  UNL1        0.2007
     33 C         143.3215  141.8765  156.2380 C.ar    1  UNL1        0.1392
     34 N         142.6113  142.3057  157.4875 N.ar    1  UNL1       -0.2359
     35 O         145.7893  141.5431  155.0936 O.3     1  UNL1       -0.3932
     36 C         147.1767  141.7771  155.6136 C.3     1  UNL1        0.5892
     37 F         147.5969  141.2989  154.2554 F       1  UNL1       -0.1252
     38 F         148.6519  141.9110  155.8497 F       1  UNL1       -0.1252
     39 O         147.0649  142.2832  157.0212 O.3     1  UNL1       -0.3947
@<TRIPOS>BOND
     1    21    22    1
     2    22    18    1
     3    18    19    2
     4    18    20    2
     5    18     8    1
     6     8     9    1
     7     8    10    1
     8    10    11    1
     9    11    12    1
    10    12    23    1
    11    23    24    1
    12    12     1    1
    13     1     2   ar
    14     2     3   ar
    15     3    25    1
    16    25    26   am
    17    26    27    2
    18    26    29    1
    19    29    30   ar
    20    30    31   ar
    21    31    32   ar
    22    32    33   ar
    23    33    34   ar
    24    32    35    1
    25    35    36    1
    26    36    37    1
    27    36    38    1
    28    36    39    1
    29     3     4   ar
    30     4     5   ar
    31     5     6   ar
    32     6     7    1
    33    12    13    1
    34    13    14    2
    35    14    15    1
    36    14     8    1
    37     6     1   ar
    38    34    29   ar
    39    39    31    1
    40    25    28    1
    41    15    16    1
    42    15    17    1
@<TRIPOS>MOLECULE
*****
 39 42 0 0 0
SMALL
GASTEIGER

@<TRIPOS>ATOM
      1 C         140.5385  139.3327  164.5213 C.ar    1  UNL1        0.0531
      2 C         139.9503  140.1197  163.3880 C.ar    1  UNL1        0.0167
      3 C         140.5344  140.0032  162.0113 C.ar    1  UNL1        0.0505
      4 C         141.7068  139.0998  161.7680 C.ar    1  UNL1        0.0170
      5 C         142.2950  138.3128  162.9014 C.ar    1  UNL1        0.0307
      6 C         141.7109  138.4293  164.2781 C.ar    1  UNL1        0.1402
      7 F         142.2992  137.6423  165.4115 F       1  UNL1       -0.2044
      8 C         140.4562  140.8643  168.4952 C.3     1  UNL1        0.2040
      9 C         139.8721  140.9808  169.8719 C.3     1  UNL1        0.0361
     10 C         141.3767  141.0839  167.3315 C.3     1  UNL1        0.0385
     11 C         141.1258  140.3763  166.0328 C.3     1  UNL1        0.0586
     12 C         139.9543  139.4492  165.8980 C.3     1  UNL1        0.2277
     13 N         139.0338  139.2297  167.0618 N.2     1  UNL1       -0.0699
     14 C         139.2847  139.9372  168.3604 C.2     1  UNL1        0.3086
     15 N         138.3642  139.7177  169.5241 N.pl3   1  UNL1       -0.2488
     16 H         137.5953  139.1092  169.4357 H       1  UNL1        0.2881
     17 H         138.5289  140.1821  170.3765 H       1  UNL1        0.2881
     18 S         141.4248  141.8319  169.1082 S.O2    1  UNL1       -0.0026
     19 O         140.7018  142.9710  168.4526 O.2     1  UNL1       -0.1725
     20 O         142.1477  140.6927  169.7637 O.2     1  UNL1       -0.1725
     21 C         143.8502  142.4517  169.8034 C.3     1  UNL1        0.0271
     22 C         142.3934  142.7994  169.7212 C.3     1  UNL1        0.1514
     23 C         138.9857  138.4817  165.2850 C.3     1  UNL1        0.2460
     24 F         138.0327  137.7202  166.1578 F       1  UNL1       -0.2293
     25 N         139.9461  140.7903  160.8779 N.am    1  UNL1       -0.2791
     26 C         139.0912  140.1052  159.8533 C.2     1  UNL1        0.2673
     27 O         138.8245  138.6331  159.9621 O.2     1  UNL1       -0.2682
     28 H         140.1212  141.7564  160.8064 H       1  UNL1        0.1552
     29 C         138.5029  140.8922  158.7199 C.ar    1  UNL1        0.1380
     30 C         139.0973  142.2152  158.3374 C.ar    1  UNL1        0.0641
     31 C         138.5091  143.0021  157.2040 C.ar    1  UNL1        0.1849
     32 C         137.3263  142.4661  156.4532 C.ar    1  UNL1        0.2007
     33 C         136.7319  141.1432  156.8357 C.ar    1  UNL1        0.1392
     34 N         137.3201  140.3562  157.9690 N.ar    1  UNL1       -0.2359
     35 O         136.9642  143.4591  155.3888 O.3     1  UNL1       -0.3932
     36 C         137.9232  144.6088  155.4818 C.3     1  UNL1        0.5892
     37 F         137.1344  145.1554  154.3289 F       1  UNL1       -0.1252
     38 F         138.7172  145.8727  155.3338 F       1  UNL1       -0.1252
     39 O         138.8779  144.3263  156.6037 O.3     1  UNL1       -0.3947
@<TRIPOS>BOND
     1    21    22    1
     2    22    18    1
     3    18    19    2
     4    18    20    2
     5    18     8    1
     6     8     9    1
     7     8    10    1
     8    10    11    1
     9    11    12    1
    10    12    23    1
    11    23    24    1
    12    12     1    1
    13     1     2   ar
    14     2     3   ar
    15     3    25    1
    16    25    26   am
    17    26    27    2
    18    26    29    1
    19    29    30   ar
    20    30    31   ar
    21    31    32   ar
    22    32    33   ar
    23    33    34   ar
    24    32    35    1
    25    35    36    1
    26    36    37    1
    27    36    38    1
    28    36    39    1
    29     3     4   ar
    30     4     5   ar
    31     5     6   ar
    32     6     7    1
    33    12    13    1
    34    13    14    2
    35    14    15    1
    36    14     8    1
    37     6     1   ar
    38    34    29   ar
    39    39    31    1
    40    25    28    1
    41    15    16    1
    42    15    17    1
@<TRIPOS>MOLECULE
*****
 39 42 0 0 0
SMALL
GASTEIGER

@<TRIPOS>ATOM
      1 C         143.2764  141.8014  163.7175 C.ar    1  UNL1        0.0531
      2 C         142.0995  141.8828  162.7910 C.ar    1  UNL1        0.0167
      3 C         142.1736  142.7327  161.5573 C.ar    1  UNL1        0.0505
      4 C         143.4245  143.5012  161.2500 C.ar    1  UNL1        0.0170
      5 C         144.6014  143.4199  162.1764 C.ar    1  UNL1        0.0307
      6 C         144.5273  142.5699  163.4102 C.ar    1  UNL1        0.1402
      7 F         145.7042  142.4886  164.3367 F       1  UNL1       -0.2044
      8 C         142.6122  141.2013  167.8820 C.3     1  UNL1        0.2040
      9 C         142.5381  140.3514  169.1157 C.3     1  UNL1        0.0361
     10 C         142.5550  142.4129  166.9995 C.3     1  UNL1        0.0385
     11 C         142.8501  142.2880  165.5341 C.3     1  UNL1        0.0586
     12 C         143.2023  140.9515  164.9512 C.3     1  UNL1        0.2277
     13 N         143.2595  139.7399  165.8337 N.2     1  UNL1       -0.0699
     14 C         142.9644  139.8648  167.2991 C.2     1  UNL1        0.3086
     15 N         143.0216  138.6532  168.1816 N.pl3   1  UNL1       -0.2488
     16 H         143.2528  137.7761  167.7990 H       1  UNL1        0.2881
     17 H         142.8280  138.7352  169.1433 H       1  UNL1        0.2881
     18 S         142.2342  142.2426  168.8933 S.O2    1  UNL1       -0.0026
     19 O         143.6857  142.5005  169.1702 O.2     1  UNL1       -0.1725
     20 O         140.7828  141.9847  168.6164 O.2     1  UNL1       -0.1725
     21 C         140.4726  143.8629  169.9038 C.3     1  UNL1        0.0271
     22 C         141.8563  143.2839  169.9047 C.3     1  UNL1        0.1514
     23 C         143.5803  139.9102  163.9399 C.3     1  UNL1        0.2460
     24 F         143.7971  138.4899  164.3709 F       1  UNL1       -0.2293
     25 N         140.9967  142.8140  160.6308 N.am    1  UNL1       -0.2791
     26 C         141.0558  142.1569  159.2837 C.2     1  UNL1        0.2673
     27 O         142.2918  141.4184  158.8631 O.2     1  UNL1       -0.2682
     28 H         140.1855  143.2987  160.9069 H       1  UNL1        0.1552
     29 C         139.8789  142.2382  158.3572 C.ar    1  UNL1        0.1380
     30 C         138.7970  141.2016  158.4263 C.ar    1  UNL1        0.0641
     31 C         137.6201  141.2830  157.4998 C.ar    1  UNL1        0.1849
     32 C         137.5252  142.4010  156.5043 C.ar    1  UNL1        0.2007
     33 C         138.6071  143.4377  156.4353 C.ar    1  UNL1        0.1392
     34 N         139.7839  143.3563  157.3617 N.ar    1  UNL1       -0.2359
     35 O         136.2555  142.2219  155.7259 O.3     1  UNL1       -0.3932
     36 C         135.5658  140.9932  156.2402 C.3     1  UNL1        0.5892
     37 F         134.5331  141.3315  155.2062 F       1  UNL1       -0.1252
     38 F         134.6602  139.8353  156.5385 F       1  UNL1       -0.1252
     39 O         136.4091  140.4129  157.3366 O.3     1  UNL1       -0.3947
@<TRIPOS>BOND
     1    21    22    1
     2    22    18    1
     3    18    19    2
     4    18    20    2
     5    18     8    1
     6     8     9    1
     7     8    10    1
     8    10    11    1
     9    11    12    1
    10    12    23    1
    11    23    24    1
    12    12     1    1
    13     1     2   ar
    14     2     3   ar
    15     3    25    1
    16    25    26   am
    17    26    27    2
    18    26    29    1
    19    29    30   ar
    20    30    31   ar
    21    31    32   ar
    22    32    33   ar
    23    33    34   ar
    24    32    35    1
    25    35    36    1
    26    36    37    1
    27    36    38    1
    28    36    39    1
    29     3     4   ar
    30     4     5   ar
    31     5     6   ar
    32     6     7    1
    33    12    13    1
    34    13    14    2
    35    14    15    1
    36    14     8    1
    37     6     1   ar
    38    34    29   ar
    39    39    31    1
    40    25    28    1
    41    15    16    1
    42    15    17    1
@<TRIPOS>MOLECULE
*****
 39 42 0 0 0
SMALL
GASTEIGER

@<TRIPOS>ATOM
      1 C         140.9670  141.9985  159.0737 C.ar    1  UNL1        0.0531
      2 C         141.3240  140.5464  158.9555 C.ar    1  UNL1        0.0167
      3 C         140.5905  139.6705  157.9834 C.ar    1  UNL1        0.0505
      4 C         139.5001  140.2466  157.1297 C.ar    1  UNL1        0.0170
      5 C         139.1431  141.6987  157.2479 C.ar    1  UNL1        0.0307
      6 C         139.8765  142.5746  158.2199 C.ar    1  UNL1        0.1402
      7 F         139.5194  144.0267  158.3382 F       1  UNL1       -0.2044
      8 C         141.4434  143.9161  162.8473 C.3     1  UNL1        0.2040
      9 C         142.1768  144.7921  163.8193 C.3     1  UNL1        0.0361
     10 C         140.3869  143.0132  162.2830 C.3     1  UNL1        0.0385
     11 C         140.5154  142.4923  160.8822 C.3     1  UNL1        0.0586
     12 C         141.7004  142.8744  160.0457 C.3     1  UNL1        0.2277
     13 N         142.7569  143.7774  160.6100 N.2     1  UNL1       -0.0699
     14 C         142.6284  144.2983  162.0107 C.2     1  UNL1        0.3086
     15 N         143.6849  145.2012  162.5750 N.pl3   1  UNL1       -0.2488
     16 H         144.4627  145.4520  162.0260 H       1  UNL1        0.2881
     17 H         143.6006  145.5431  163.4944 H       1  UNL1        0.2881
     18 S         140.5131  143.8383  164.0214 S.O2    1  UNL1       -0.0026
     19 O         141.1375  142.5370  164.4298 O.2     1  UNL1       -0.1725
     20 O         139.8888  145.1395  163.6129 O.2     1  UNL1       -0.1725
     21 C         138.5871  144.8557  165.4373 C.3     1  UNL1        0.0271
     22 C         139.5828  143.7604  165.1955 C.3     1  UNL1        0.1514
     23 C         142.6306  142.9523  158.8716 C.3     1  UNL1        0.2460
     24 F         144.1115  143.0433  159.0928 F       1  UNL1       -0.2293
     25 N         140.9476  138.2184  157.8652 N.am    1  UNL1       -0.2791
     26 C         141.6632  137.7189  156.6452 C.2     1  UNL1        0.2673
     27 O         142.0217  138.6715  155.5434 O.2     1  UNL1       -0.2682
     28 H         140.7123  137.5931  158.5884 H       1  UNL1        0.1552
     29 C         142.0202  136.2668  156.5270 C.ar    1  UNL1        0.1380
     30 C         143.1373  135.6995  157.3518 C.ar    1  UNL1        0.0641
     31 C         143.4943  134.2475  157.2336 C.ar    1  UNL1        0.1849
     32 C         142.7342  133.3627  156.2905 C.ar    1  UNL1        0.2007
     33 C         141.6172  133.9299  155.4656 C.ar    1  UNL1        0.1392
     34 N         141.2602  135.3819  155.5839 N.ar    1  UNL1       -0.2359
     35 O         143.3088  131.9804  156.3871 O.3     1  UNL1       -0.3932
     36 C         144.4240  132.0110  157.3898 C.3     1  UNL1        0.5892
     37 F         144.5479  130.5525  157.0619 F       1  UNL1       -0.1252
     38 F         145.5650  131.7366  158.3240 F       1  UNL1       -0.1252
     39 O         144.5386  133.4121  157.9130 O.3     1  UNL1       -0.3947
@<TRIPOS>BOND
     1    21    22    1
     2    22    18    1
     3    18    19    2
     4    18    20    2
     5    18     8    1
     6     8     9    1
     7     8    10    1
     8    10    11    1
     9    11    12    1
    10    12    23    1
    11    23    24    1
    12    12     1    1
    13     1     2   ar
    14     2     3   ar
    15     3    25    1
    16    25    26   am
    17    26    27    2
    18    26    29    1
    19    29    30   ar
    20    30    31   ar
    21    31    32   ar
    22    32    33   ar
    23    33    34   ar
    24    32    35    1
    25    35    36    1
    26    36    37    1
    27    36    38    1
    28    36    39    1
    29     3     4   ar
    30     4     5   ar
    31     5     6   ar
    32     6     7    1
    33    12    13    1
    34    13    14    2
    35    14    15    1
    36    14     8    1
    37     6     1   ar
    38    34    29   ar
    39    39    31    1
    40    25    28    1
    41    15    16    1
    42    15    17    1
@<TRIPOS>MOLECULE
*****
 39 42 0 0 0
SMALL
GASTEIGER

@<TRIPOS>ATOM
      1 C         142.0456  142.6980  165.0204 C.ar    1  UNL1        0.0531
      2 C         141.6794  143.2661  163.6814 C.ar    1  UNL1        0.0167
      3 C         142.6359  144.1718  162.9639 C.ar    1  UNL1        0.0505
      4 C         143.9586  144.5094  163.5855 C.ar    1  UNL1        0.0170
      5 C         144.3248  143.9413  164.9246 C.ar    1  UNL1        0.0307
      6 C         143.3683  143.0356  165.6420 C.ar    1  UNL1        0.1402
      7 F         143.7345  142.4675  166.9812 F       1  UNL1       -0.2044
      8 C         139.3935  139.3710  165.2255 C.3     1  UNL1        0.2040
      9 C         138.4369  138.4653  165.9429 C.3     1  UNL1        0.0361
     10 C         140.2311  139.9471  164.1226 C.3     1  UNL1        0.0385
     11 C         141.0789  141.1578  164.3788 C.3     1  UNL1        0.0586
     12 C         141.0891  141.7923  165.7379 C.3     1  UNL1        0.2277
     13 N         140.2515  141.2162  166.8408 N.2     1  UNL1       -0.0699
     14 C         139.4036  140.0056  166.5847 C.2     1  UNL1        0.3086
     15 N         138.5660  139.4295  167.6876 N.pl3   1  UNL1       -0.2488
     16 H         138.5727  139.8460  168.5797 H       1  UNL1        0.2881
     17 H         138.0096  138.6350  167.5195 H       1  UNL1        0.2881
     18 S         139.0511  138.4220  164.1155 S.O2    1  UNL1       -0.0026
     19 O         139.9839  137.4027  164.6993 O.2     1  UNL1       -0.1725
     20 O         138.1182  139.4413  163.5318 O.2     1  UNL1       -0.1725
     21 C         138.1289  137.9949  161.7245 C.3     1  UNL1        0.0271
     22 C         138.7087  137.4729  163.0056 C.3     1  UNL1        0.1514
     23 C         141.4315  142.7414  166.8479 C.3     1  UNL1        0.2460
     24 F         140.4946  142.9086  168.0074 F       1  UNL1       -0.2293
     25 N         142.2697  144.7399  161.6248 N.am    1  UNL1       -0.2791
     26 C         142.2844  143.8623  160.4084 C.2     1  UNL1        0.2673
     27 O         142.6653  142.4167  160.5310 O.2     1  UNL1       -0.2682
     28 H         142.0197  145.6887  161.5443 H       1  UNL1        0.1552
     29 C         141.9182  144.4304  159.0692 C.ar    1  UNL1        0.1380
     30 C         140.8364  145.4642  158.9635 C.ar    1  UNL1        0.0641
     31 C         140.4703  146.0322  157.6244 C.ar    1  UNL1        0.1849
     32 C         141.1858  145.5665  156.3911 C.ar    1  UNL1        0.2007
     33 C         142.2675  144.5328  156.4968 C.ar    1  UNL1        0.1392
     34 N         142.6337  143.9647  157.8359 N.ar    1  UNL1       -0.2359
     35 O         140.6118  146.3021  155.2166 O.3     1  UNL1       -0.3932
     36 C         139.5416  147.2225  155.7240 C.3     1  UNL1        0.5892
     37 F         139.3992  147.5981  154.2788 F       1  UNL1       -0.1252
     38 F         138.4416  148.2214  155.9294 F       1  UNL1       -0.1252
     39 O         139.4541  147.0557  157.2121 O.3     1  UNL1       -0.3947
@<TRIPOS>BOND
     1    21    22    1
     2    22    18    1
     3    18    19    2
     4    18    20    2
     5    18     8    1
     6     8     9    1
     7     8    10    1
     8    10    11    1
     9    11    12    1
    10    12    23    1
    11    23    24    1
    12    12     1    1
    13     1     2   ar
    14     2     3   ar
    15     3    25    1
    16    25    26   am
    17    26    27    2
    18    26    29    1
    19    29    30   ar
    20    30    31   ar
    21    31    32   ar
    22    32    33   ar
    23    33    34   ar
    24    32    35    1
    25    35    36    1
    26    36    37    1
    27    36    38    1
    28    36    39    1
    29     3     4   ar
    30     4     5   ar
    31     5     6   ar
    32     6     7    1
    33    12    13    1
    34    13    14    2
    35    14    15    1
    36    14     8    1
    37     6     1   ar
    38    34    29   ar
    39    39    31    1
    40    25    28    1
    41    15    16    1
    42    15    17    1
@<TRIPOS>MOLECULE
*****
 39 42 0 0 0
SMALL
GASTEIGER

@<TRIPOS>ATOM
      1 C         141.9601  140.3494  164.1851 C.ar    1  UNL1        0.0531
      2 C         141.6904  141.4426  163.1942 C.ar    1  UNL1        0.0167
      3 C         142.7070  141.7668  162.1399 C.ar    1  UNL1        0.0505
      4 C         143.9932  140.9976  162.0765 C.ar    1  UNL1        0.0170
      5 C         144.2629  139.9044  163.0675 C.ar    1  UNL1        0.0307
      6 C         143.2463  139.5803  164.1218 C.ar    1  UNL1        0.1402
      7 F         143.5161  138.4870  165.1128 F       1  UNL1       -0.2044
      8 C         140.4073  140.5313  168.1475 C.3     1  UNL1        0.2040
      9 C         139.3908  140.2071  169.2018 C.3     1  UNL1        0.0361
     10 C         141.6341  141.1025  167.5006 C.3     1  UNL1        0.0385
     11 C         141.9023  140.8495  166.0466 C.3     1  UNL1        0.0586
     12 C         140.9436  140.0253  165.2395 C.3     1  UNL1        0.2277
     13 N         139.7168  139.4540  165.8863 N.2     1  UNL1       -0.0699
     14 C         139.4485  139.7069  167.3403 C.2     1  UNL1        0.3086
     15 N         138.2217  139.1357  167.9871 N.pl3   1  UNL1       -0.2488
     16 H         137.5925  138.5947  167.4574 H       1  UNL1        0.2881
     17 H         138.0457  139.3017  168.9414 H       1  UNL1        0.2881
     18 S         141.0129  141.2429  169.3208 S.O2    1  UNL1       -0.0026
     19 O         141.5316  139.9368  169.8452 O.2     1  UNL1       -0.1725
     20 O         140.4942  142.5490  168.7963 O.2     1  UNL1       -0.1725
     21 C         142.5371  143.1194  170.2722 C.3     1  UNL1        0.0271
     22 C         141.6186  141.9546  170.4941 C.3     1  UNL1        0.1514
     23 C         140.3380  139.3136  164.0662 C.3     1  UNL1        0.2460
     24 F         138.8563  139.0861  164.0101 F       1  UNL1       -0.2293
     25 N         142.4372  142.8601  161.1489 N.am    1  UNL1       -0.2791
     26 C         141.6126  142.5789  159.9278 C.2     1  UNL1        0.2673
     27 O         141.0578  141.2044  159.6977 O.2     1  UNL1       -0.2682
     28 H         142.8014  143.7622  161.2999 H       1  UNL1        0.1552
     29 C         141.3429  143.6722  158.9368 C.ar    1  UNL1        0.1380
     30 C         140.0882  143.6469  158.1152 C.ar    1  UNL1        0.0641
     31 C         139.8185  144.7402  157.1243 C.ar    1  UNL1        0.1849
     32 C         140.8035  145.8587  156.9550 C.ar    1  UNL1        0.2007
     33 C         142.0582  145.8840  157.7766 C.ar    1  UNL1        0.1392
     34 N         142.3279  144.7907  158.7675 N.ar    1  UNL1       -0.2359
     35 O         140.2708  146.7908  155.9074 O.3     1  UNL1       -0.3932
     36 C         138.9567  146.2483  155.4292 C.3     1  UNL1        0.5892
     37 F         138.9617  147.4550  154.5382 F       1  UNL1       -0.1252
     38 F         137.6435  145.9581  154.7648 F       1  UNL1       -0.1252
     39 O         138.6771  144.9810  156.1813 O.3     1  UNL1       -0.3947
@<TRIPOS>BOND
     1    21    22    1
     2    22    18    1
     3    18    19    2
     4    18    20    2
     5    18     8    1
     6     8     9    1
     7     8    10    1
     8    10    11    1
     9    11    12    1
    10    12    23    1
    11    23    24    1
    12    12     1    1
    13     1     2   ar
    14     2     3   ar
    15     3    25    1
    16    25    26   am
    17    26    27    2
    18    26    29    1
    19    29    30   ar
    20    30    31   ar
    21    31    32   ar
    22    32    33   ar
    23    33    34   ar
    24    32    35    1
    25    35    36    1
    26    36    37    1
    27    36    38    1
    28    36    39    1
    29     3     4   ar
    30     4     5   ar
    31     5     6   ar
    32     6     7    1
    33    12    13    1
    34    13    14    2
    35    14    15    1
    36    14     8    1
    37     6     1   ar
    38    34    29   ar
    39    39    31    1
    40    25    28    1
    41    15    16    1
    42    15    17    1
@<TRIPOS>MOLECULE
*****
 39 42 0 0 0
SMALL
GASTEIGER

@<TRIPOS>ATOM
      1 C         139.6947  141.5369  157.7082 C.ar    1  UNL1        0.0531
      2 C         140.1932  140.1239  157.7779 C.ar    1  UNL1        0.0167
      3 C         139.6251  139.0820  156.8605 C.ar    1  UNL1        0.0505
      4 C         138.5583  139.4531  155.8734 C.ar    1  UNL1        0.0170
      5 C         138.0598  140.8660  155.8037 C.ar    1  UNL1        0.0307
      6 C         138.6280  141.9080  156.7211 C.ar    1  UNL1        0.1402
      7 F         138.1294  143.3210  156.6514 F       1  UNL1       -0.2044
      8 C         139.7456  143.8000  161.3165 C.3     1  UNL1        0.2040
      9 C         140.3138  144.8420  162.2339 C.3     1  UNL1        0.0361
     10 C         138.8426  142.7212  160.7964 C.3     1  UNL1        0.0385
     11 C         139.1012  142.1106  159.4509 C.3     1  UNL1        0.0586
     12 C         140.2629  142.5788  158.6256 C.3     1  UNL1        0.2277
     13 N         141.1659  143.6576  159.1457 N.2     1  UNL1       -0.0699
     14 C         140.9074  144.2683  160.4911 C.2     1  UNL1        0.3086
     15 N         141.8104  145.3471  161.0112 N.pl3   1  UNL1       -0.2488
     16 H         142.5729  145.6545  160.4695 H       1  UNL1        0.2881
     17 H         141.6407  145.7479  161.8942 H       1  UNL1        0.2881
     18 S         138.7813  143.6937  162.4605 S.O2    1  UNL1       -0.0026
     19 O         138.2530  145.0610  162.1423 O.2     1  UNL1       -0.1725
     20 O         139.3096  142.3264  162.7786 O.2     1  UNL1       -0.1725
     21 C         137.6601  142.2866  164.3347 C.3     1  UNL1        0.0271
     22 C         137.8169  143.5873  163.6045 C.3     1  UNL1        0.1514
     23 C         141.2272  142.6852  157.4816 C.3     1  UNL1        0.2460
     24 F         142.6753  142.9738  157.7458 F       1  UNL1       -0.2293
     25 N         140.1237  137.6690  156.9303 N.am    1  UNL1       -0.2791
     26 C         141.2860  137.2412  156.0842 C.2     1  UNL1        0.2673
     27 O         141.9499  138.2264  155.1684 O.2     1  UNL1       -0.2682
     28 H         139.6880  137.0223  157.5313 H       1  UNL1        0.1552
     29 C         141.7846  135.8281  156.1540 C.ar    1  UNL1        0.1380
     30 C         142.9620  135.4901  157.0197 C.ar    1  UNL1        0.0641
     31 C         143.4605  134.0772  157.0894 C.ar    1  UNL1        0.1849
     32 C         142.7817  133.0022  156.2934 C.ar    1  UNL1        0.2007
     33 C         141.6044  133.3402  155.4276 C.ar    1  UNL1        0.1392
     34 N         141.1059  134.7532  155.3579 N.ar    1  UNL1       -0.2359
     35 O         143.4922  131.7085  156.5611 O.3     1  UNL1       -0.3932
     36 C         144.6101  131.9839  157.5225 C.3     1  UNL1        0.5892
     37 F         144.8750  130.5134  157.3912 F       1  UNL1       -0.1252
     38 F         145.7834  131.9519  158.4566 F       1  UNL1       -0.1252
     39 O         144.5905  133.4478  157.8491 O.3     1  UNL1       -0.3947
@<TRIPOS>BOND
     1    21    22    1
     2    22    18    1
     3    18    19    2
     4    18    20    2
     5    18     8    1
     6     8     9    1
     7     8    10    1
     8    10    11    1
     9    11    12    1
    10    12    23    1
    11    23    24    1
    12    12     1    1
    13     1     2   ar
    14     2     3   ar
    15     3    25    1
    16    25    26   am
    17    26    27    2
    18    26    29    1
    19    29    30   ar
    20    30    31   ar
    21    31    32   ar
    22    32    33   ar
    23    33    34   ar
    24    32    35    1
    25    35    36    1
    26    36    37    1
    27    36    38    1
    28    36    39    1
    29     3     4   ar
    30     4     5   ar
    31     5     6   ar
    32     6     7    1
    33    12    13    1
    34    13    14    2
    35    14    15    1
    36    14     8    1
    37     6     1   ar
    38    34    29   ar
    39    39    31    1
    40    25    28    1
    41    15    16    1
    42    15    17    1
