@<TRIPOS>MOLECULE
*****
 38 41 0 0 0
SMALL
GASTEIGER

@<TRIPOS>ATOM
      1 C         143.1269  142.6136  166.3141 C.ar    1  UNL1       -0.0065
      2 C         144.2753  143.3554  165.6971 C.ar    1  UNL1       -0.0033
      3 C         144.1756  143.8517  164.2851 C.ar    1  UNL1       -0.0048
      4 C         142.9276  143.6062  163.4901 C.ar    1  UNL1       -0.0245
      5 C         141.7791  142.8644  164.1072 C.ar    1  UNL1       -0.0263
      6 C         141.8788  142.3681  165.5192 C.ar    1  UNL1       -0.0075
      7 C         140.5310  142.6188  163.3122 C.3     1  UNL1        0.0277
      8 C         140.4313  143.1151  161.9002 C.3     1  UNL1        0.0248
      9 C         141.5798  143.8569  161.2832 C.3     1  UNL1        0.0801
     10 C         142.8279  144.1025  162.0781 C.3     1  UNL1        0.0458
     11 N         141.4802  144.3532  159.8712 N.am    1  UNL1       -0.2783
     12 C         142.3610  143.7688  158.8068 C.3     1  UNL1        0.1107
     13 C         142.2614  144.2651  157.3948 C.3     1  UNL1        0.0942
     14 N         141.2808  145.3458  157.0471 N.3     1  UNL1       -0.2632
     15 C         140.4000  145.9301  158.1114 C.3     1  UNL1        0.1587
     16 C         140.4997  145.4338  159.5234 C.2     1  UNL1        0.2420
     17 O         139.6189  146.0181  160.5877 O.2     1  UNL1       -0.2734
     18 C         141.1812  145.8421  155.6351 C.3     1  UNL1        0.0773
     19 C         139.8609  146.3053  155.0944 C.3     1  UNL1        0.0437
     20 C         139.5562  147.7719  155.0142 C.ar    1  UNL1       -0.0206
     21 C         138.7664  148.4345  156.1037 C.ar    1  UNL1       -0.0019
     22 C         138.4617  149.9010  156.0234 C.ar    1  UNL1        0.0293
     23 C         138.9469  150.7050  154.8538 C.ar    1  UNL1        0.1401
     24 F         138.6423  152.1715  154.7735 F       1  UNL1       -0.2042
     25 C         139.7368  150.0423  153.7642 C.ar    1  UNL1        0.0293
     26 C         140.0415  148.5758  153.8444 C.ar    1  UNL1       -0.0019
     27 C         143.2265  142.1173  167.7261 C.3     1  UNL1        0.0996
     28 N         141.9821  141.7760  168.4907 N.3     1  UNL1       -0.2594
     29 C         141.1566  142.8671  169.1057 C.3     1  UNL1        0.0903
     30 C         141.5629  140.3435  168.6404 C.3     1  UNL1        0.1648
     31 C         138.3436  139.0606  166.7066 C.3     1  UNL1        0.1149
     32 N         139.7612  139.4609  166.9898 N.am    1  UNL1       -0.2749
     33 C         140.7946  139.3786  165.9057 C.3     1  UNL1        0.1149
     34 C         140.1454  139.9433  168.3572 C.2     1  UNL1        0.2428
     35 O         139.1120  140.0255  169.4413 O.2     1  UNL1       -0.2733
     36 C         142.5615  139.3112  169.0734 C.3     1  UNL1        0.1624
     37 O         142.3743  138.5853  170.3726 O.3     1  UNL1       -0.3800
     38 H         142.4592  139.2118  171.1082 H       1  UNL1        0.2105
@<TRIPOS>BOND
     1    31    32    1
     2    32    33    1
     3    32    34   am
     4    34    35    2
     5    34    30    1
     6    30    36    1
     7    36    37    1
     8    30    28    1
     9    28    29    1
    10    28    27    1
    11    27     1    1
    12     1     2   ar
    13     2     3   ar
    14     3     4   ar
    15     4     5   ar
    16     5     6   ar
    17     5     7    1
    18     7     8    1
    19     8     9    1
    20     9    11    1
    21    11    12    1
    22    12    13    1
    23    13    14    1
    24    14    18    1
    25    18    19    1
    26    19    20    1
    27    20    21   ar
    28    21    22   ar
    29    22    23   ar
    30    23    24    1
    31    23    25   ar
    32    25    26   ar
    33    14    15    1
    34    15    16    1
    35    16    17    2
    36     9    10    1
    37     6     1   ar
    38    16    11   am
    39    10     4    1
    40    26    20   ar
    41    37    38    1
@<TRIPOS>MOLECULE
*****
 38 41 0 0 0
SMALL
GASTEIGER

@<TRIPOS>ATOM
      1 C         140.8175  141.7551  165.5862 C.ar    1  UNL1       -0.0065
      2 C         139.8298  142.8830  165.5410 C.ar    1  UNL1       -0.0033
      3 C         139.4962  143.5359  164.2324 C.ar    1  UNL1       -0.0048
      4 C         140.1504  143.0609  162.9689 C.ar    1  UNL1       -0.0245
      5 C         141.1381  141.9329  163.0141 C.ar    1  UNL1       -0.0263
      6 C         141.4717  141.2801  164.3227 C.ar    1  UNL1       -0.0075
      7 C         141.7923  141.4578  161.7506 C.3     1  UNL1        0.0277
      8 C         141.4588  142.1107  160.4420 C.3     1  UNL1        0.0248
      9 C         140.4709  143.2387  160.3969 C.3     1  UNL1        0.0801
     10 C         139.8168  143.7137  161.6603 C.3     1  UNL1        0.0458
     11 N         140.1374  143.8916  159.0883 N.am    1  UNL1       -0.2783
     12 C         140.6938  145.2460  158.7625 C.3     1  UNL1        0.1107
     13 C         140.3602  145.8988  157.4538 C.3     1  UNL1        0.0942
     14 N         139.4702  145.1973  156.4710 N.3     1  UNL1       -0.2632
     15 C         138.9138  143.8430  156.7969 C.3     1  UNL1        0.1587
     16 C         139.2474  143.1901  158.1055 C.2     1  UNL1        0.2420
     17 O         138.6910  141.8358  158.4313 O.2     1  UNL1       -0.2734
     18 C         139.1366  145.8502  155.1624 C.3     1  UNL1        0.0773
     19 C         140.0028  146.9546  154.6329 C.3     1  UNL1        0.0437
     20 C         139.5537  148.3811  154.7491 C.ar    1  UNL1       -0.0206
     21 C         138.7335  148.8156  155.9274 C.ar    1  UNL1       -0.0019
     22 C         138.2845  150.2421  156.0435 C.ar    1  UNL1        0.0293
     23 C         138.6557  151.2341  154.9814 C.ar    1  UNL1        0.1401
     24 F         138.2067  152.6606  155.0975 F       1  UNL1       -0.2042
     25 C         139.4760  150.7996  153.8030 C.ar    1  UNL1        0.0293
     26 C         139.9250  149.3731  153.6869 C.ar    1  UNL1       -0.0019
     27 C         141.1511  141.1022  166.8948 C.3     1  UNL1        0.0996
     28 N         140.0552  140.5570  167.7618 N.3     1  UNL1       -0.2594
     29 C         139.0959  139.5444  167.2100 C.3     1  UNL1        0.0903
     30 C         139.9186  141.0242  169.1806 C.3     1  UNL1        0.1648
     31 C         142.8562  143.2361  170.6731 C.3     1  UNL1        0.1149
     32 N         142.0810  142.0429  170.1985 N.am    1  UNL1       -0.2749
     33 C         142.6931  140.6752  170.2672 C.3     1  UNL1        0.1149
     34 C         140.6938  142.2174  169.6552 C.2     1  UNL1        0.2428
     35 O         140.0818  143.5851  169.5865 O.2     1  UNL1       -0.2733
     36 C         139.0068  140.2982  170.1248 C.3     1  UNL1        0.1624
     37 O         139.5821  139.4789  171.2419 O.3     1  UNL1       -0.3800
     38 H         140.0676  138.7246  170.8728 H       1  UNL1        0.2105
@<TRIPOS>BOND
     1    31    32    1
     2    32    33    1
     3    32    34   am
     4    34    35    2
     5    34    30    1
     6    30    36    1
     7    36    37    1
     8    30    28    1
     9    28    29    1
    10    28    27    1
    11    27     1    1
    12     1     2   ar
    13     2     3   ar
    14     3     4   ar
    15     4     5   ar
    16     5     6   ar
    17     5     7    1
    18     7     8    1
    19     8     9    1
    20     9    11    1
    21    11    12    1
    22    12    13    1
    23    13    14    1
    24    14    18    1
    25    18    19    1
    26    19    20    1
    27    20    21   ar
    28    21    22   ar
    29    22    23   ar
    30    23    24    1
    31    23    25   ar
    32    25    26   ar
    33    14    15    1
    34    15    16    1
    35    16    17    2
    36     9    10    1
    37     6     1   ar
    38    16    11   am
    39    10     4    1
    40    26    20   ar
    41    37    38    1
@<TRIPOS>MOLECULE
*****
 38 41 0 0 0
SMALL
GASTEIGER

@<TRIPOS>ATOM
      1 C         142.7532  140.1375  166.7267 C.ar    1  UNL1       -0.0065
      2 C         143.1890  141.3006  165.8856 C.ar    1  UNL1       -0.0033
      3 C         143.0869  141.2253  164.3910 C.ar    1  UNL1       -0.0048
      4 C         142.5490  139.9870  163.7374 C.ar    1  UNL1       -0.0245
      5 C         142.1132  138.8240  164.5785 C.ar    1  UNL1       -0.0263
      6 C         142.2153  138.8992  166.0731 C.ar    1  UNL1       -0.0075
      7 C         141.5753  137.5856  163.9249 C.3     1  UNL1        0.0277
      8 C         141.4732  137.5103  162.4303 C.3     1  UNL1        0.0248
      9 C         141.9090  138.6734  161.5892 C.3     1  UNL1        0.0801
     10 C         142.4469  139.9117  162.2428 C.3     1  UNL1        0.0458
     11 N         141.8069  138.5981  160.0946 N.am    1  UNL1       -0.2783
     12 C         143.0422  138.7145  159.2516 C.3     1  UNL1        0.1107
     13 C         142.9401  138.6393  157.7570 C.3     1  UNL1        0.0942
     14 N         141.6027  138.4476  157.1053 N.3     1  UNL1       -0.2632
     15 C         140.3675  138.3311  157.9483 C.3     1  UNL1        0.1587
     16 C         140.4696  138.4064  159.4429 C.2     1  UNL1        0.2420
     17 O         139.2344  138.2900  160.2858 O.2     1  UNL1       -0.2734
     18 C         141.5006  138.3723  155.6107 C.3     1  UNL1        0.0773
     19 C         142.3333  137.3826  154.8510 C.3     1  UNL1        0.0437
     20 C         142.4056  135.9558  155.3081 C.ar    1  UNL1       -0.0206
     21 C         143.5689  135.4904  156.1327 C.ar    1  UNL1       -0.0019
     22 C         143.6411  134.0636  156.5899 C.ar    1  UNL1        0.0293
     23 C         142.5500  133.1021  156.2223 C.ar    1  UNL1        0.1401
     24 F         142.6223  131.6753  156.6794 F       1  UNL1       -0.2042
     25 C         141.3867  133.5675  155.3976 C.ar    1  UNL1        0.0293
     26 C         141.3144  134.9943  154.9405 C.ar    1  UNL1       -0.0019
     27 C         142.8553  140.2128  168.2213 C.3     1  UNL1        0.0996
     28 N         142.3322  141.4155  168.9492 N.3     1  UNL1       -0.2594
     29 C         143.2869  142.3736  169.5979 C.3     1  UNL1        0.0903
     30 C         140.8544  141.6602  169.0284 C.3     1  UNL1        0.1648
     31 C         138.2974  139.1963  167.2562 C.3     1  UNL1        0.1149
     32 N         139.2577  140.3285  167.4705 N.am    1  UNL1       -0.2749
     33 C         139.5814  141.2613  166.3413 C.3     1  UNL1        0.1149
     34 C         139.8942  140.5280  168.8141 C.2     1  UNL1        0.2428
     35 O         139.5705  139.5953  169.9433 O.2     1  UNL1       -0.2733
     36 C         140.3369  143.0372  169.3219 C.3     1  UNL1        0.1624
     37 O         139.9527  143.4112  170.7228 O.3     1  UNL1       -0.3800
     38 H         139.1845  142.8869  170.9983 H       1  UNL1        0.2105
@<TRIPOS>BOND
     1    31    32    1
     2    32    33    1
     3    32    34   am
     4    34    35    2
     5    34    30    1
     6    30    36    1
     7    36    37    1
     8    30    28    1
     9    28    29    1
    10    28    27    1
    11    27     1    1
    12     1     2   ar
    13     2     3   ar
    14     3     4   ar
    15     4     5   ar
    16     5     6   ar
    17     5     7    1
    18     7     8    1
    19     8     9    1
    20     9    11    1
    21    11    12    1
    22    12    13    1
    23    13    14    1
    24    14    18    1
    25    18    19    1
    26    19    20    1
    27    20    21   ar
    28    21    22   ar
    29    22    23   ar
    30    23    24    1
    31    23    25   ar
    32    25    26   ar
    33    14    15    1
    34    15    16    1
    35    16    17    2
    36     9    10    1
    37     6     1   ar
    38    16    11   am
    39    10     4    1
    40    26    20   ar
    41    37    38    1
@<TRIPOS>MOLECULE
*****
 38 41 0 0 0
SMALL
GASTEIGER

@<TRIPOS>ATOM
      1 C         142.1958  139.4865  165.4557 C.ar    1  UNL1       -0.0065
      2 C         142.1311  138.0293  165.1059 C.ar    1  UNL1       -0.0033
      3 C         142.0098  137.6069  163.6717 C.ar    1  UNL1       -0.0048
      4 C         141.9532  138.6417  162.5873 C.ar    1  UNL1       -0.0245
      5 C         142.0179  140.0988  162.9371 C.ar    1  UNL1       -0.0263
      6 C         142.1392  140.5212  164.3713 C.ar    1  UNL1       -0.0075
      7 C         141.9614  141.1337  161.8527 C.3     1  UNL1        0.0277
      8 C         141.8401  140.7113  160.4185 C.3     1  UNL1        0.0248
      9 C         141.7754  139.2541  160.0687 C.3     1  UNL1        0.0801
     10 C         141.8319  138.2193  161.1531 C.3     1  UNL1        0.0458
     11 N         141.6541  138.8317  158.6346 N.am    1  UNL1       -0.2783
     12 C         140.3602  138.2690  158.1253 C.3     1  UNL1        0.1107
     13 C         140.2389  137.8466  156.6911 C.3     1  UNL1        0.0942
     14 N         141.4115  137.9869  155.7662 N.3     1  UNL1       -0.2632
     15 C         142.7053  138.5495  156.2755 C.3     1  UNL1        0.1587
     16 C         142.8266  138.9719  157.7097 C.2     1  UNL1        0.2420
     17 O         144.1205  139.5345  158.2190 O.2     1  UNL1       -0.2734
     18 C         141.2902  137.5645  154.3320 C.3     1  UNL1        0.0773
     19 C         142.1400  136.4463  153.8051 C.3     1  UNL1        0.0437
     20 C         142.3399  135.2059  154.6245 C.ar    1  UNL1       -0.0206
     21 C         143.5834  135.0430  155.4474 C.ar    1  UNL1       -0.0019
     22 C         143.7833  133.8026  156.2669 C.ar    1  UNL1        0.0293
     23 C         142.7397  132.7252  156.2634 C.ar    1  UNL1        0.1401
     24 F         142.9396  131.4848  157.0829 F       1  UNL1       -0.2042
     25 C         141.4962  132.8881  155.4405 C.ar    1  UNL1        0.0293
     26 C         141.2963  134.1285  154.6210 C.ar    1  UNL1       -0.0019
     27 C         142.3171  139.9089  166.8899 C.3     1  UNL1        0.0996
     28 N         141.1052  139.9195  167.7736 N.3     1  UNL1       -0.2594
     29 C         139.7338  139.8935  167.1664 C.3     1  UNL1        0.0903
     30 C         141.2645  139.9562  169.2647 C.3     1  UNL1        0.1648
     31 C         139.4498  142.9793  171.0861 C.3     1  UNL1        0.1149
     32 N         140.4267  142.2111  170.2460 N.am    1  UNL1       -0.2749
     33 C         141.5426  142.9299  169.5473 C.3     1  UNL1        0.1149
     34 C         140.2877  140.7243  170.1047 C.2     1  UNL1        0.2428
     35 O         139.1718  140.0056  170.8034 O.2     1  UNL1       -0.2733
     36 C         142.4009  139.2246  169.9157 C.3     1  UNL1        0.1624
     37 O         143.4361  139.9846  170.6907 O.3     1  UNL1       -0.3800
     38 H         143.9358  140.5570  170.0878 H       1  UNL1        0.2105
@<TRIPOS>BOND
     1    31    32    1
     2    32    33    1
     3    32    34   am
     4    34    35    2
     5    34    30    1
     6    30    36    1
     7    36    37    1
     8    30    28    1
     9    28    29    1
    10    28    27    1
    11    27     1    1
    12     1     2   ar
    13     2     3   ar
    14     3     4   ar
    15     4     5   ar
    16     5     6   ar
    17     5     7    1
    18     7     8    1
    19     8     9    1
    20     9    11    1
    21    11    12    1
    22    12    13    1
    23    13    14    1
    24    14    18    1
    25    18    19    1
    26    19    20    1
    27    20    21   ar
    28    21    22   ar
    29    22    23   ar
    30    23    24    1
    31    23    25   ar
    32    25    26   ar
    33    14    15    1
    34    15    16    1
    35    16    17    2
    36     9    10    1
    37     6     1   ar
    38    16    11   am
    39    10     4    1
    40    26    20   ar
    41    37    38    1
@<TRIPOS>MOLECULE
*****
 38 41 0 0 0
SMALL
GASTEIGER

@<TRIPOS>ATOM
      1 C         139.8379  140.4338  165.4009 C.ar    1  UNL1       -0.0065
      2 C         139.6634  138.9478  165.2949 C.ar    1  UNL1       -0.0033
      3 C         139.8626  138.2614  163.9761 C.ar    1  UNL1       -0.0048
      4 C         140.2362  139.0611  162.7633 C.ar    1  UNL1       -0.0245
      5 C         140.4107  140.5471  162.8693 C.ar    1  UNL1       -0.0263
      6 C         140.2115  141.2334  164.1881 C.ar    1  UNL1       -0.0075
      7 C         140.7843  141.3468  161.6565 C.3     1  UNL1        0.0277
      8 C         140.9835  140.6604  160.3377 C.3     1  UNL1        0.0248
      9 C         140.8090  139.1743  160.2317 C.3     1  UNL1        0.0801
     10 C         140.4354  138.3747  161.4445 C.3     1  UNL1        0.0458
     11 N         141.0082  138.4880  158.9129 N.am    1  UNL1       -0.2783
     12 C         139.8267  138.1812  158.0411 C.3     1  UNL1        0.1107
     13 C         140.0258  137.4948  156.7223 C.3     1  UNL1        0.0942
     14 N         141.4065  137.1152  156.2753 N.3     1  UNL1       -0.2632
     15 C         142.5879  137.4220  157.1471 C.3     1  UNL1        0.1587
     16 C         142.3888  138.1084  158.4659 C.2     1  UNL1        0.2420
     17 O         143.5702  138.4152  159.3377 O.2     1  UNL1       -0.2734
     18 C         141.6057  136.4289  154.9565 C.3     1  UNL1        0.0773
     19 C         142.7938  135.5374  154.7468 C.3     1  UNL1        0.0437
     20 C         142.8591  134.2024  155.4276 C.ar    1  UNL1       -0.0206
     21 C         143.8655  133.9628  156.5137 C.ar    1  UNL1       -0.0019
     22 C         143.9309  132.6277  157.1944 C.ar    1  UNL1        0.0293
     23 C         142.9898  131.5323  156.7890 C.ar    1  UNL1        0.1401
     24 F         143.0551  130.1973  157.4698 F       1  UNL1       -0.2042
     25 C         141.9833  131.7719  155.7029 C.ar    1  UNL1        0.0293
     26 C         141.9180  133.1069  155.0222 C.ar    1  UNL1       -0.0019
     27 C         139.6387  141.1202  166.7197 C.3     1  UNL1        0.0996
     28 N         140.4637  140.7186  167.9063 N.3     1  UNL1       -0.2594
     29 C         139.7913  140.2859  169.1755 C.3     1  UNL1        0.0903
     30 C         141.9611  140.7499  167.8239 C.3     1  UNL1        0.1648
     31 C         144.1760  137.6180  166.8063 C.3     1  UNL1        0.1149
     32 N         143.3925  138.8930  166.7044 N.am    1  UNL1       -0.2749
     33 C         143.2568  139.5861  165.3811 C.3     1  UNL1        0.1149
     34 C         142.7446  139.4749  167.9258 C.2     1  UNL1        0.2428
     35 O         142.8803  138.7818  169.2491 O.2     1  UNL1       -0.2733
     36 C         142.6750  142.0562  167.6395 C.3     1  UNL1        0.1624
     37 O         143.4505  142.6540  168.7759 O.3     1  UNL1       -0.3800
     38 H         142.8408  142.9014  169.4886 H       1  UNL1        0.2105
@<TRIPOS>BOND
     1    31    32    1
     2    32    33    1
     3    32    34   am
     4    34    35    2
     5    34    30    1
     6    30    36    1
     7    36    37    1
     8    30    28    1
     9    28    29    1
    10    28    27    1
    11    27     1    1
    12     1     2   ar
    13     2     3   ar
    14     3     4   ar
    15     4     5   ar
    16     5     6   ar
    17     5     7    1
    18     7     8    1
    19     8     9    1
    20     9    11    1
    21    11    12    1
    22    12    13    1
    23    13    14    1
    24    14    18    1
    25    18    19    1
    26    19    20    1
    27    20    21   ar
    28    21    22   ar
    29    22    23   ar
    30    23    24    1
    31    23    25   ar
    32    25    26   ar
    33    14    15    1
    34    15    16    1
    35    16    17    2
    36     9    10    1
    37     6     1   ar
    38    16    11   am
    39    10     4    1
    40    26    20   ar
    41    37    38    1
@<TRIPOS>MOLECULE
*****
 38 41 0 0 0
SMALL
GASTEIGER

@<TRIPOS>ATOM
      1 C         139.6279  139.4570  165.2381 C.ar    1  UNL1       -0.0065
      2 C         140.2359  138.0967  165.0654 C.ar    1  UNL1       -0.0033
      3 C         140.6732  137.6377  163.7060 C.ar    1  UNL1       -0.0048
      4 C         140.5025  138.5390  162.5192 C.ar    1  UNL1       -0.0245
      5 C         139.8945  139.8993  162.6919 C.ar    1  UNL1       -0.0263
      6 C         139.4571  140.3583  164.0513 C.ar    1  UNL1       -0.0075
      7 C         139.7237  140.8007  161.5051 C.3     1  UNL1        0.0277
      8 C         140.1611  140.3417  160.1456 C.3     1  UNL1        0.0248
      9 C         140.7692  138.9814  159.9730 C.3     1  UNL1        0.0801
     10 C         140.9399  138.0801  161.1598 C.3     1  UNL1        0.0458
     11 N         141.2065  138.5224  158.6136 N.am    1  UNL1       -0.2783
     12 C         140.1913  138.0264  157.6269 C.3     1  UNL1        0.1107
     13 C         140.6286  137.5674  156.2675 C.3     1  UNL1        0.0942
     14 N         142.0812  137.6044  155.8947 N.3     1  UNL1       -0.2632
     15 C         143.0963  138.1004  156.8813 C.3     1  UNL1        0.1587
     16 C         142.6589  138.5594  158.2408 C.2     1  UNL1        0.2420
     17 O         143.6740  139.0554  159.2274 O.2     1  UNL1       -0.2734
     18 C         142.5185  137.1454  154.5352 C.3     1  UNL1        0.0773
     19 C         142.1195  135.7877  154.0377 C.3     1  UNL1        0.0437
     20 C         142.4023  134.5714  154.8689 C.ar    1  UNL1       -0.0206
     21 C         141.4488  133.4137  154.8526 C.ar    1  UNL1       -0.0019
     22 C         141.7316  132.1974  155.6838 C.ar    1  UNL1        0.0293
     23 C         142.9679  132.1389  156.5311 C.ar    1  UNL1        0.1401
     24 F         143.2507  130.9227  157.3622 F       1  UNL1       -0.2042
     25 C         143.9215  133.2968  156.5473 C.ar    1  UNL1        0.0293
     26 C         143.6387  134.5130  155.7162 C.ar    1  UNL1       -0.0019
     27 C         139.1905  139.9160  166.5975 C.3     1  UNL1        0.0996
     28 N         139.9815  140.9613  167.3266 N.3     1  UNL1       -0.2594
     29 C         140.2443  142.2893  166.6805 C.3     1  UNL1        0.0903
     30 C         140.5097  140.6787  168.7018 C.3     1  UNL1        0.1648
     31 C         143.9197  142.3261  169.8881 C.3     1  UNL1        0.1149
     32 N         142.4602  142.1452  169.5934 N.am    1  UNL1       -0.2749
     33 C         141.4915  143.2498  169.8957 C.3     1  UNL1        0.1149
     34 C         141.9693  140.8596  168.9964 C.2     1  UNL1        0.2428
     35 O         142.9379  139.7550  168.6941 O.2     1  UNL1       -0.2733
     36 C         139.5782  140.2152  169.7824 C.3     1  UNL1        0.1624
     37 O         140.1032  139.3982  170.9256 O.3     1  UNL1       -0.3800
     38 H         140.4091  138.5390  170.5953 H       1  UNL1        0.2105
@<TRIPOS>BOND
     1    31    32    1
     2    32    33    1
     3    32    34   am
     4    34    35    2
     5    34    30    1
     6    30    36    1
     7    36    37    1
     8    30    28    1
     9    28    29    1
    10    28    27    1
    11    27     1    1
    12     1     2   ar
    13     2     3   ar
    14     3     4   ar
    15     4     5   ar
    16     5     6   ar
    17     5     7    1
    18     7     8    1
    19     8     9    1
    20     9    11    1
    21    11    12    1
    22    12    13    1
    23    13    14    1
    24    14    18    1
    25    18    19    1
    26    19    20    1
    27    20    21   ar
    28    21    22   ar
    29    22    23   ar
    30    23    24    1
    31    23    25   ar
    32    25    26   ar
    33    14    15    1
    34    15    16    1
    35    16    17    2
    36     9    10    1
    37     6     1   ar
    38    16    11   am
    39    10     4    1
    40    26    20   ar
    41    37    38    1
@<TRIPOS>MOLECULE
*****
 38 41 0 0 0
SMALL
GASTEIGER

@<TRIPOS>ATOM
      1 C         142.7059  142.6186  165.4581 C.ar    1  UNL1       -0.0065
      2 C         143.5432  141.8891  164.4497 C.ar    1  UNL1       -0.0033
      3 C         143.3804  142.1812  162.9875 C.ar    1  UNL1       -0.0048
      4 C         142.3804  143.2029  162.5336 C.ar    1  UNL1       -0.0245
      5 C         141.5431  143.9324  163.5419 C.ar    1  UNL1       -0.0263
      6 C         141.7059  143.6403  165.0041 C.ar    1  UNL1       -0.0075
      7 C         140.5430  144.9541  163.0879 C.3     1  UNL1        0.0277
      8 C         140.3802  145.2462  161.6257 C.3     1  UNL1        0.0248
      9 C         141.2176  144.5166  160.6174 C.3     1  UNL1        0.0801
     10 C         142.2176  143.4950  161.0713 C.3     1  UNL1        0.0458
     11 N         141.0548  144.8087  159.1551 N.am    1  UNL1       -0.2783
     12 C         142.0648  145.6591  158.4432 C.3     1  UNL1        0.1107
     13 C         141.9020  145.9512  156.9809 C.3     1  UNL1        0.0942
     14 N         140.7292  145.3930  156.2306 N.3     1  UNL1       -0.2632
     15 C         139.7193  144.5426  156.9425 C.3     1  UNL1        0.1587
     16 C         139.8821  144.2505  158.4048 C.2     1  UNL1        0.2420
     17 O         138.8721  143.4002  159.1167 O.2     1  UNL1       -0.2734
     18 C         140.5665  145.6851  154.7684 C.3     1  UNL1        0.0773
     19 C         139.4267  146.5384  154.2963 C.3     1  UNL1        0.0437
     20 C         139.2865  147.9458  154.7959 C.ar    1  UNL1       -0.0206
     21 C         139.7943  149.0894  153.9687 C.ar    1  UNL1       -0.0019
     22 C         139.6542  150.4968  154.4683 C.ar    1  UNL1        0.0293
     23 C         139.0061  150.7606  155.7951 C.ar    1  UNL1        0.1401
     24 F         138.8659  152.1680  156.2946 F       1  UNL1       -0.2042
     25 C         138.4982  149.6171  156.6223 C.ar    1  UNL1        0.0293
     26 C         138.6384  148.2097  156.1228 C.ar    1  UNL1       -0.0019
     27 C         142.8687  142.3265  166.9203 C.3     1  UNL1        0.0996
     28 N         141.6919  141.8667  167.7288 N.3     1  UNL1       -0.2594
     29 C         140.6884  142.8641  168.2271 C.3     1  UNL1        0.0903
     30 C         141.5186  140.4094  168.0391 C.3     1  UNL1        0.1648
     31 C         142.1355  138.0186  164.9321 C.3     1  UNL1        0.1149
     32 N         141.5151  139.0539  165.8226 N.am    1  UNL1       -0.2749
     33 C         140.2707  139.7693  165.3871 C.3     1  UNL1        0.1149
     34 C         142.1390  139.3740  167.1486 C.2     1  UNL1        0.2428
     35 O         143.3835  138.6587  167.5841 O.2     1  UNL1       -0.2733
     36 C         140.7248  139.9875  169.2399 C.3     1  UNL1        0.1624
     37 O         139.2464  139.7636  169.1208 O.3     1  UNL1       -0.3800
     38 H         138.8068  140.6054  168.9231 H       1  UNL1        0.2105
@<TRIPOS>BOND
     1    31    32    1
     2    32    33    1
     3    32    34   am
     4    34    35    2
     5    34    30    1
     6    30    36    1
     7    36    37    1
     8    30    28    1
     9    28    29    1
    10    28    27    1
    11    27     1    1
    12     1     2   ar
    13     2     3   ar
    14     3     4   ar
    15     4     5   ar
    16     5     6   ar
    17     5     7    1
    18     7     8    1
    19     8     9    1
    20     9    11    1
    21    11    12    1
    22    12    13    1
    23    13    14    1
    24    14    18    1
    25    18    19    1
    26    19    20    1
    27    20    21   ar
    28    21    22   ar
    29    22    23   ar
    30    23    24    1
    31    23    25   ar
    32    25    26   ar
    33    14    15    1
    34    15    16    1
    35    16    17    2
    36     9    10    1
    37     6     1   ar
    38    16    11   am
    39    10     4    1
    40    26    20   ar
    41    37    38    1
@<TRIPOS>MOLECULE
*****
 38 41 0 0 0
SMALL
GASTEIGER

@<TRIPOS>ATOM
      1 C         142.7907  141.6979  166.2601 C.ar    1  UNL1       -0.0065
      2 C         143.6604  140.4880  166.0877 C.ar    1  UNL1       -0.0033
      3 C         143.8856  139.9150  164.7199 C.ar    1  UNL1       -0.0048
      4 C         143.2412  140.5518  163.5245 C.ar    1  UNL1       -0.0245
      5 C         142.3715  141.7617  163.6969 C.ar    1  UNL1       -0.0263
      6 C         142.1463  142.3347  165.0647 C.ar    1  UNL1       -0.0075
      7 C         141.7270  142.3986  162.5014 C.3     1  UNL1        0.0277
      8 C         141.9522  141.8255  161.1336 C.3     1  UNL1        0.0248
      9 C         142.8220  140.6156  160.9613 C.3     1  UNL1        0.0801
     10 C         143.4664  139.9787  162.1567 C.3     1  UNL1        0.0458
     11 N         143.0472  140.0425  159.5935 N.am    1  UNL1       -0.2783
     12 C         144.0144  140.7006  158.6545 C.3     1  UNL1        0.1107
     13 C         144.2396  140.1275  157.2867 C.3     1  UNL1        0.0942
     14 N         143.4976  138.8964  156.8579 N.3     1  UNL1       -0.2632
     15 C         142.5305  138.2384  157.7968 C.3     1  UNL1        0.1587
     16 C         142.3053  138.8114  159.1646 C.2     1  UNL1        0.2420
     17 O         141.3381  138.1534  160.1035 O.2     1  UNL1       -0.2734
     18 C         143.7229  138.3233  155.4901 C.3     1  UNL1        0.0773
     19 C         144.3790  136.9831  155.3372 C.3     1  UNL1        0.0437
     20 C         143.5490  135.7340  155.3665 C.ar    1  UNL1       -0.0206
     21 C         142.5802  135.4510  154.2569 C.ar    1  UNL1       -0.0019
     22 C         141.7502  134.2019  154.2862 C.ar    1  UNL1        0.0293
     23 C         141.8890  133.2358  155.4252 C.ar    1  UNL1        0.1401
     24 F         141.0590  131.9867  155.4545 F       1  UNL1       -0.2042
     25 C         142.8579  133.5187  156.5349 C.ar    1  UNL1        0.0293
     26 C         143.6879  134.7678  156.5055 C.ar    1  UNL1       -0.0019
     27 C         142.5655  142.2710  167.6279 C.3     1  UNL1        0.0996
     28 N         141.3148  141.9356  168.3849 N.3     1  UNL1       -0.2594
     29 C         140.3663  143.0259  168.7870 C.3     1  UNL1        0.0903
     30 C         141.0125  140.5099  168.7400 C.3     1  UNL1        0.1648
     31 C         137.8092  138.8567  167.0800 C.3     1  UNL1        0.1149
     32 N         139.1993  139.3937  167.2513 N.am    1  UNL1       -0.2749
     33 C         140.1661  139.3515  166.1053 C.3     1  UNL1        0.1149
     34 C         139.6225  139.9729  168.5687 C.2     1  UNL1        0.2428
     35 O         138.6557  140.0150  169.7147 O.2     1  UNL1       -0.2733
     36 C         142.1003  139.6212  169.2664 C.3     1  UNL1        0.1624
     37 O         142.8362  139.9976  170.5181 O.3     1  UNL1       -0.3800
     38 H         143.3488  140.8060  170.3612 H       1  UNL1        0.2105
@<TRIPOS>BOND
     1    31    32    1
     2    32    33    1
     3    32    34   am
     4    34    35    2
     5    34    30    1
     6    30    36    1
     7    36    37    1
     8    30    28    1
     9    28    29    1
    10    28    27    1
    11    27     1    1
    12     1     2   ar
    13     2     3   ar
    14     3     4   ar
    15     4     5   ar
    16     5     6   ar
    17     5     7    1
    18     7     8    1
    19     8     9    1
    20     9    11    1
    21    11    12    1
    22    12    13    1
    23    13    14    1
    24    14    18    1
    25    18    19    1
    26    19    20    1
    27    20    21   ar
    28    21    22   ar
    29    22    23   ar
    30    23    24    1
    31    23    25   ar
    32    25    26   ar
    33    14    15    1
    34    15    16    1
    35    16    17    2
    36     9    10    1
    37     6     1   ar
    38    16    11   am
    39    10     4    1
    40    26    20   ar
    41    37    38    1
@<TRIPOS>MOLECULE
*****
 38 41 0 0 0
SMALL
GASTEIGER

@<TRIPOS>ATOM
      1 C         142.7218  138.8605  165.4052 C.ar    1  UNL1       -0.0065
      2 C         141.5470  137.9743  165.1144 C.ar    1  UNL1       -0.0033
      3 C         141.2256  137.5953  163.6991 C.ar    1  UNL1       -0.0048
      4 C         142.0788  138.1025  162.5746 C.ar    1  UNL1       -0.0245
      5 C         143.2535  138.9887  162.8654 C.ar    1  UNL1       -0.0263
      6 C         143.5750  139.3677  164.2806 C.ar    1  UNL1       -0.0075
      7 C         144.1069  139.4960  161.7408 C.3     1  UNL1        0.0277
      8 C         143.7854  139.1171  160.3255 C.3     1  UNL1        0.0248
      9 C         142.6106  138.2308  160.0348 C.3     1  UNL1        0.0801
     10 C         141.7573  137.7236  161.1593 C.3     1  UNL1        0.0458
     11 N         142.2891  137.8518  158.6195 N.am    1  UNL1       -0.2783
     12 C         143.0487  136.7462  157.9481 C.3     1  UNL1        0.1107
     13 C         142.7273  136.3672  156.5328 C.3     1  UNL1        0.0942
     14 N         141.6462  137.0939  155.7889 N.3     1  UNL1       -0.2632
     15 C         140.8867  138.1994  156.4603 C.3     1  UNL1        0.1587
     16 C         141.2081  138.5784  157.8756 C.2     1  UNL1        0.2420
     17 O         140.4486  139.6840  158.5470 O.2     1  UNL1       -0.2734
     18 C         141.3247  136.7149  154.3736 C.3     1  UNL1        0.0773
     19 C         142.1082  135.6335  153.6903 C.3     1  UNL1        0.0437
     20 C         141.5649  134.2366  153.6316 C.ar    1  UNL1       -0.0206
     21 C         141.0493  133.6864  152.3350 C.ar    1  UNL1       -0.0019
     22 C         140.5060  132.2894  152.2763 C.ar    1  UNL1        0.0293
     23 C         140.4783  131.4428  153.5141 C.ar    1  UNL1        0.1401
     24 F         139.9350  130.0459  153.4554 F       1  UNL1       -0.2042
     25 C         140.9940  131.9931  154.8109 C.ar    1  UNL1        0.0293
     26 C         141.5373  133.3900  154.8696 C.ar    1  UNL1       -0.0019
     27 C         143.0432  139.2395  166.8205 C.3     1  UNL1        0.0996
     28 N         142.3009  140.3616  167.4835 N.3     1  UNL1       -0.2594
     29 C         141.6152  141.4032  166.6497 C.3     1  UNL1        0.0903
     30 C         142.2442  140.4423  168.9802 C.3     1  UNL1        0.1648
     31 C         139.7703  143.0275  170.6967 C.3     1  UNL1        0.1149
     32 N         140.2842  141.7852  170.0315 N.am    1  UNL1       -0.2749
     33 C         139.3522  140.6436  169.7523 C.3     1  UNL1        0.1149
     34 C         141.7302  141.6846  169.6454 C.2     1  UNL1        0.2428
     35 O         142.6622  142.8262  169.9246 O.2     1  UNL1       -0.2733
     36 C         142.7015  139.2806  169.8118 C.3     1  UNL1        0.1624
     37 O         143.4990  139.5193  171.0596 O.3     1  UNL1       -0.3800
     38 H         144.3599  139.9000  170.8252 H       1  UNL1        0.2105
@<TRIPOS>BOND
     1    31    32    1
     2    32    33    1
     3    32    34   am
     4    34    35    2
     5    34    30    1
     6    30    36    1
     7    36    37    1
     8    30    28    1
     9    28    29    1
    10    28    27    1
    11    27     1    1
    12     1     2   ar
    13     2     3   ar
    14     3     4   ar
    15     4     5   ar
    16     5     6   ar
    17     5     7    1
    18     7     8    1
    19     8     9    1
    20     9    11    1
    21    11    12    1
    22    12    13    1
    23    13    14    1
    24    14    18    1
    25    18    19    1
    26    19    20    1
    27    20    21   ar
    28    21    22   ar
    29    22    23   ar
    30    23    24    1
    31    23    25   ar
    32    25    26   ar
    33    14    15    1
    34    15    16    1
    35    16    17    2
    36     9    10    1
    37     6     1   ar
    38    16    11   am
    39    10     4    1
    40    26    20   ar
    41    37    38    1
