@<TRIPOS>MOLECULE
*****
 32 34 0 0 0
SMALL
GASTEIGER

@<TRIPOS>ATOM
      1 C         142.2240  139.1616  164.3725 C.3     1  UNL1        0.0690
      2 C         141.1494  138.1171  164.4385 C.3     1  UNL1        0.0485
      3 C         140.9677  137.1552  163.3019 C.3     1  UNL1        0.1436
      4 O         141.8604  137.2379  162.0993 O.3     1  UNL1       -0.3537
      5 C         142.9349  138.2824  162.0333 C.3     1  UNL1        0.1436
      6 C         143.1167  139.2443  163.1700 C.3     1  UNL1        0.0485
      7 N         140.4515  140.1170  168.3969 N.3     1  UNL1       -0.2703
      8 C         139.5742  140.0794  167.1808 C.3     1  UNL1        0.0897
      9 C         140.1651  139.7610  165.8393 C.3     1  UNL1        0.0896
     10 N         141.6332  139.4800  165.7140 N.3     1  UNL1       -0.2710
     11 C         142.5104  139.5176  166.9301 C.3     1  UNL1        0.0896
     12 C         141.9196  139.8360  168.2715 C.3     1  UNL1        0.0897
     13 C         139.8607  140.4355  169.7383 C.3     1  UNL1        0.0722
     14 C         139.6292  141.8631  170.1361 C.3     1  UNL1        0.0173
     15 C         141.8210  143.2446  169.9428 C.3     1  UNL1        0.0000
     16 C         140.4203  142.9601  169.4875 C.3     1  UNL1        0.0014
     17 C         143.0933  140.3167  164.7724 C.3     1  UNL1        0.1143
     18 N         142.9818  141.6254  164.0478 N.am    1  UNL1       -0.2425
     19 C         144.2187  142.4054  163.7138 C.2     1  UNL1        0.2304
     20 O         145.5671  141.8769  164.1043 O.2     1  UNL1       -0.2745
     21 C         141.6335  142.1539  163.6572 C.ar    1  UNL1        0.1373
     22 C         141.0538  141.8127  162.3165 C.ar    1  UNL1        0.0347
     23 C         139.7054  142.3413  161.9259 C.ar    1  UNL1        0.0044
     24 C         138.9368  143.2109  162.8760 C.ar    1  UNL1        0.0232
     25 C         139.5165  143.5521  164.2168 C.ar    1  UNL1        0.1540
     26 N         140.8648  143.0236  164.6074 N.ar    1  UNL1       -0.2263
     27 C         138.7478  144.4218  165.1669 C.3     1  UNL1        0.4349
     28 F         137.9789  145.2916  166.1169 F       1  UNL1       -0.1644
     29 F         139.6922  144.0502  166.2713 F       1  UNL1       -0.1644
     30 F         137.8032  144.7935  164.0624 F       1  UNL1       -0.1644
     31 C         144.1073  143.7140  162.9892 C.3     1  UNL1        0.0857
     32 C         143.8227  144.9728  163.7535 C.3     1  UNL1        0.0101
@<TRIPOS>BOND
     1    15    16    1
     2    16    14    1
     3    14    13    1
     4    13     7    1
     5     7     8    1
     6     8     9    1
     7     9    10    1
     8    10     1    1
     9     1    17    1
    10    17    18    1
    11    18    19   am
    12    19    20    2
    13    19    31    1
    14    31    32    1
    15    18    21    1
    16    21    22   ar
    17    22    23   ar
    18    23    24   ar
    19    24    25   ar
    20    25    27    1
    21    27    28    1
    22    27    29    1
    23    27    30    1
    24    25    26   ar
    25     1     2    1
    26     2     3    1
    27     3     4    1
    28     4     5    1
    29     5     6    1
    30    10    11    1
    31    11    12    1
    32    12     7    1
    33     6     1    1
    34    26    21   ar
@<TRIPOS>MOLECULE
*****
 32 34 0 0 0
SMALL
GASTEIGER

@<TRIPOS>ATOM
      1 C         142.1961  139.0358  164.5594 C.3     1  UNL1        0.0690
      2 C         141.0469  138.0740  164.6241 C.3     1  UNL1        0.0485
      3 C         140.7688  137.1589  163.4685 C.3     1  UNL1        0.1436
      4 O         141.6399  137.2056  162.2483 O.3     1  UNL1       -0.3537
      5 C         142.7892  138.1674  162.1837 C.3     1  UNL1        0.1436
      6 C         143.0672  139.0825  163.3392 C.3     1  UNL1        0.0485
      7 N         140.5858  140.0159  168.6455 N.3     1  UNL1       -0.2703
      8 C         142.0585  139.8101  168.4493 C.3     1  UNL1        0.0897
      9 C         142.5953  139.4834  167.0873 C.3     1  UNL1        0.0896
     10 N         141.6593  139.3625  165.9214 N.3     1  UNL1       -0.2710
     11 C         140.1865  139.5682  166.1176 C.3     1  UNL1        0.0896
     12 C         139.6498  139.8949  167.4797 C.3     1  UNL1        0.0897
     13 C         140.0490  140.3426  170.0075 C.3     1  UNL1        0.0722
     14 C         139.5964  141.7380  170.3204 C.3     1  UNL1        0.0173
     15 C         141.6853  143.2387  169.9533 C.3     1  UNL1        0.0000
     16 C         140.2540  142.9078  169.6501 C.3     1  UNL1        0.0014
     17 C         143.1589  140.1110  164.9678 C.3     1  UNL1        0.1143
     18 N         142.9973  141.5041  164.4355 N.am    1  UNL1       -0.2425
     19 C         144.1809  142.2342  163.8734 C.2     1  UNL1        0.2304
     20 O         145.5261  141.5713  163.8435 O.2     1  UNL1       -0.2745
     21 C         141.6521  142.1670  164.4654 C.ar    1  UNL1        0.1373
     22 C         141.1885  142.8672  165.7084 C.ar    1  UNL1        0.0347
     23 C         139.8432  143.5301  165.7383 C.ar    1  UNL1        0.0044
     24 C         138.9617  143.4929  164.5254 C.ar    1  UNL1        0.0232
     25 C         139.4253  142.7928  163.2824 C.ar    1  UNL1        0.1540
     26 N         140.7705  142.1299  163.2525 N.ar    1  UNL1       -0.2263
     27 C         138.5436  142.7557  162.0694 C.3     1  UNL1        0.4349
     28 F         137.6620  142.7185  160.8563 F       1  UNL1       -0.1644
     29 F         137.4183  143.3420  162.8693 F       1  UNL1       -0.1644
     30 F         139.6690  142.1693  161.2694 F       1  UNL1       -0.1644
     31 C         144.0193  143.6272  163.3411 C.3     1  UNL1        0.0857
     32 C         143.9671  144.7902  164.2869 C.3     1  UNL1        0.0101
@<TRIPOS>BOND
     1    15    16    1
     2    16    14    1
     3    14    13    1
     4    13     7    1
     5     7     8    1
     6     8     9    1
     7     9    10    1
     8    10     1    1
     9     1    17    1
    10    17    18    1
    11    18    19   am
    12    19    20    2
    13    19    31    1
    14    31    32    1
    15    18    21    1
    16    21    22   ar
    17    22    23   ar
    18    23    24   ar
    19    24    25   ar
    20    25    27    1
    21    27    28    1
    22    27    29    1
    23    27    30    1
    24    25    26   ar
    25     1     2    1
    26     2     3    1
    27     3     4    1
    28     4     5    1
    29     5     6    1
    30    10    11    1
    31    11    12    1
    32    12     7    1
    33     6     1    1
    34    26    21   ar
@<TRIPOS>MOLECULE
*****
 32 34 0 0 0
SMALL
GASTEIGER

@<TRIPOS>ATOM
      1 C         143.2700  141.4708  164.6165 C.3     1  UNL1        0.0690
      2 C         144.0411  140.1929  164.7665 C.3     1  UNL1        0.0485
      3 C         144.7143  139.5790  163.5748 C.3     1  UNL1        0.1436
      4 O         144.6165  140.2429  162.2334 O.3     1  UNL1       -0.3537
      5 C         143.8455  141.5208  162.0835 C.3     1  UNL1        0.1436
      6 C         143.1722  142.1347  163.2751 C.3     1  UNL1        0.0485
      7 N         142.6902  140.7197  169.0154 N.3     1  UNL1       -0.2703
      8 C         143.0364  142.0957  168.5287 C.3     1  UNL1        0.0897
      9 C         143.2297  142.3460  167.0624 C.3     1  UNL1        0.0896
     10 N         143.0768  141.2204  166.0828 N.3     1  UNL1       -0.2710
     11 C         142.7306  139.8445  166.5695 C.3     1  UNL1        0.0896
     12 C         142.5373  139.5942  168.0358 C.3     1  UNL1        0.0897
     13 C         142.4970  140.4694  170.4816 C.3     1  UNL1        0.0722
     14 C         141.2700  140.9832  171.1749 C.3     1  UNL1        0.0173
     15 C         139.1210  140.4137  169.8304 C.3     1  UNL1        0.0000
     16 C         140.0849  141.4283  170.3703 C.3     1  UNL1        0.0014
     17 C         142.4319  142.6617  164.9759 C.3     1  UNL1        0.1143
     18 N         140.9869  142.7100  164.5761 N.am    1  UNL1       -0.2425
     19 C         140.3888  143.9926  164.0788 C.2     1  UNL1        0.2304
     20 O         141.2356  145.2268  163.9813 O.2     1  UNL1       -0.2745
     21 C         140.1401  141.4758  164.6736 C.ar    1  UNL1        0.1373
     22 C         139.4935  141.1109  165.9770 C.ar    1  UNL1        0.0347
     23 C         138.6467  139.8767  166.0745 C.ar    1  UNL1        0.0044
     24 C         138.4465  139.0073  164.8687 C.ar    1  UNL1        0.0232
     25 C         139.0931  139.3721  163.5653 C.ar    1  UNL1        0.1540
     26 N         139.9399  140.6064  163.4678 N.ar    1  UNL1       -0.2263
     27 C         138.8929  138.5027  162.3595 C.3     1  UNL1        0.4349
     28 F         138.6926  137.6331  161.1537 F       1  UNL1       -0.1644
     29 F         138.8867  139.7198  161.4828 F       1  UNL1       -0.1644
     30 F         138.8990  137.2855  163.2362 F       1  UNL1       -0.1644
     31 C         138.9439  144.0409  163.6789 C.3     1  UNL1        0.0857
     32 C         137.8890  144.3128  164.7101 C.3     1  UNL1        0.0101
@<TRIPOS>BOND
     1    15    16    1
     2    16    14    1
     3    14    13    1
     4    13     7    1
     5     7     8    1
     6     8     9    1
     7     9    10    1
     8    10     1    1
     9     1    17    1
    10    17    18    1
    11    18    19   am
    12    19    20    2
    13    19    31    1
    14    31    32    1
    15    18    21    1
    16    21    22   ar
    17    22    23   ar
    18    23    24   ar
    19    24    25   ar
    20    25    27    1
    21    27    28    1
    22    27    29    1
    23    27    30    1
    24    25    26   ar
    25     1     2    1
    26     2     3    1
    27     3     4    1
    28     4     5    1
    29     5     6    1
    30    10    11    1
    31    11    12    1
    32    12     7    1
    33     6     1    1
    34    26    21   ar
@<TRIPOS>MOLECULE
*****
 32 34 0 0 0
SMALL
GASTEIGER

@<TRIPOS>ATOM
      1 C         143.4082  142.0594  164.3308 C.3     1  UNL1        0.0690
      2 C         144.5946  141.1464  164.4232 C.3     1  UNL1        0.0485
      3 C         145.6115  141.1240  163.3207 C.3     1  UNL1        0.1436
      4 O         145.4419  142.0148  162.1258 O.3     1  UNL1       -0.3537
      5 C         144.2554  142.9278  162.0334 C.3     1  UNL1        0.1436
      6 C         143.2385  142.9501  163.1359 C.3     1  UNL1        0.0485
      7 N         142.5812  140.1024  168.2977 N.3     1  UNL1       -0.2703
      8 C         142.6269  141.5981  168.1943 C.3     1  UNL1        0.0897
      9 C         142.9025  142.2505  166.8720 C.3     1  UNL1        0.0896
     10 N         143.1325  141.4071  165.6531 N.3     1  UNL1       -0.2710
     11 C         143.0868  139.9114  165.7565 C.3     1  UNL1        0.0896
     12 C         142.8111  139.2591  167.0788 C.3     1  UNL1        0.0897
     13 C         142.3055  139.4501  169.6200 C.3     1  UNL1        0.0722
     14 C         141.5171  140.1802  170.6666 C.3     1  UNL1        0.0173
     15 C         139.2298  140.3452  169.4455 C.3     1  UNL1        0.0000
     16 C         140.0212  140.0720  170.6902 C.3     1  UNL1        0.0014
     17 C         142.1259  142.7459  164.6977 C.3     1  UNL1        0.1143
     18 N         140.8530  142.3848  163.9910 N.am    1  UNL1       -0.2425
     19 C         140.0020  143.4597  163.3825 C.2     1  UNL1        0.2304
     20 O         140.4239  144.8958  163.4807 O.2     1  UNL1       -0.2745
     21 C         140.4312  140.9487  163.8928 C.ar    1  UNL1        0.1373
     22 C         140.8707  140.1160  162.7251 C.ar    1  UNL1        0.0347
     23 C         140.4488  138.6799  162.6269 C.ar    1  UNL1        0.0044
     24 C         139.5875  138.0765  163.6964 C.ar    1  UNL1        0.0232
     25 C         139.1480  138.9091  164.8642 C.ar    1  UNL1        0.1540
     26 N         139.5698  140.3452  164.9623 N.ar    1  UNL1       -0.2263
     27 C         138.2867  138.3056  165.9337 C.3     1  UNL1        0.4349
     28 F         137.4252  137.7021  167.0032 F       1  UNL1       -0.1644
     29 F         138.7712  136.9382  165.5524 F       1  UNL1       -0.1644
     30 F         137.8020  139.6731  166.3150 F       1  UNL1       -0.1644
     31 C         138.7292  143.0986  162.6758 C.3     1  UNL1        0.0857
     32 C         138.7320  142.8759  161.1925 C.3     1  UNL1        0.0101
@<TRIPOS>BOND
     1    15    16    1
     2    16    14    1
     3    14    13    1
     4    13     7    1
     5     7     8    1
     6     8     9    1
     7     9    10    1
     8    10     1    1
     9     1    17    1
    10    17    18    1
    11    18    19   am
    12    19    20    2
    13    19    31    1
    14    31    32    1
    15    18    21    1
    16    21    22   ar
    17    22    23   ar
    18    23    24   ar
    19    24    25   ar
    20    25    27    1
    21    27    28    1
    22    27    29    1
    23    27    30    1
    24    25    26   ar
    25     1     2    1
    26     2     3    1
    27     3     4    1
    28     4     5    1
    29     5     6    1
    30    10    11    1
    31    11    12    1
    32    12     7    1
    33     6     1    1
    34    26    21   ar
@<TRIPOS>MOLECULE
*****
 32 34 0 0 0
SMALL
GASTEIGER

@<TRIPOS>ATOM
      1 C         139.8417  139.5576  166.0328 C.3     1  UNL1        0.0690
      2 C         140.2168  140.1649  167.3520 C.3     1  UNL1        0.0485
      3 C         139.3252  139.9790  168.5439 C.3     1  UNL1        0.1436
      4 O         138.0584  139.1859  168.4164 O.3     1  UNL1       -0.3537
      5 C         137.6833  138.5786  167.0972 C.3     1  UNL1        0.1436
      6 C         138.5750  138.7645  165.9053 C.3     1  UNL1        0.0485
      7 N         143.7187  141.5440  164.9045 N.3     1  UNL1       -0.2703
      8 C         142.6422  142.3341  165.5877 C.3     1  UNL1        0.0897
      9 C         141.3499  141.6720  165.9638 C.3     1  UNL1        0.0896
     10 N         141.1340  140.2197  165.6567 N.3     1  UNL1       -0.2710
     11 C         142.2106  139.4296  164.9736 C.3     1  UNL1        0.0896
     12 C         143.5029  140.0917  164.5975 C.3     1  UNL1        0.0897
     13 C         145.0111  142.2061  164.5285 C.3     1  UNL1        0.0722
     14 C         145.7076  141.8232  163.2564 C.3     1  UNL1        0.0173
     15 C         144.1625  143.4046  161.8918 C.3     1  UNL1        0.0000
     16 C         145.1746  142.2984  161.9372 C.3     1  UNL1        0.0014
     17 C         139.9155  139.1803  164.5829 C.3     1  UNL1        0.1143
     18 N         139.0483  139.8823  163.5802 N.am    1  UNL1       -0.2425
     19 C         138.2909  139.0884  162.5574 C.2     1  UNL1        0.2304
     20 O         138.4006  137.5926  162.5373 O.2     1  UNL1       -0.2745
     21 C         138.9386  141.3781  163.6003 C.ar    1  UNL1        0.1373
     22 C         137.9333  142.0445  164.4922 C.ar    1  UNL1        0.0347
     23 C         137.8236  143.5403  164.5123 C.ar    1  UNL1        0.0044
     24 C         138.7192  144.3698  163.6406 C.ar    1  UNL1        0.0232
     25 C         139.7245  143.7034  162.7488 C.ar    1  UNL1        0.1540
     26 N         139.8342  142.2076  162.7287 N.ar    1  UNL1       -0.2263
     27 C         140.6201  144.5330  161.8772 C.3     1  UNL1        0.4349
     28 F         141.5157  145.3625  161.0054 F       1  UNL1       -0.1644
     29 F         140.8731  145.4655  163.0244 F       1  UNL1       -0.1644
     30 F         140.3671  143.6004  160.7297 F       1  UNL1       -0.1644
     31 C         137.4238  139.7903  161.5548 C.3     1  UNL1        0.0857
     32 C         137.9474  140.0732  160.1779 C.3     1  UNL1        0.0101
@<TRIPOS>BOND
     1    15    16    1
     2    16    14    1
     3    14    13    1
     4    13     7    1
     5     7     8    1
     6     8     9    1
     7     9    10    1
     8    10     1    1
     9     1    17    1
    10    17    18    1
    11    18    19   am
    12    19    20    2
    13    19    31    1
    14    31    32    1
    15    18    21    1
    16    21    22   ar
    17    22    23   ar
    18    23    24   ar
    19    24    25   ar
    20    25    27    1
    21    27    28    1
    22    27    29    1
    23    27    30    1
    24    25    26   ar
    25     1     2    1
    26     2     3    1
    27     3     4    1
    28     4     5    1
    29     5     6    1
    30    10    11    1
    31    11    12    1
    32    12     7    1
    33     6     1    1
    34    26    21   ar
@<TRIPOS>MOLECULE
*****
 32 34 0 0 0
SMALL
GASTEIGER

@<TRIPOS>ATOM
      1 C         143.3720  140.2299  164.3519 C.3     1  UNL1        0.0690
      2 C         144.4243  141.2736  164.5825 C.3     1  UNL1        0.0485
      3 C         145.3508  141.6634  163.4691 C.3     1  UNL1        0.1436
      4 O         145.2250  141.0095  162.1251 O.3     1  UNL1       -0.3537
      5 C         144.1727  139.9657  161.8944 C.3     1  UNL1        0.1436
      6 C         143.2462  139.5759  163.0078 C.3     1  UNL1        0.0485
      7 N         142.5544  141.2242  168.6638 N.3     1  UNL1       -0.2703
      8 C         142.7813  142.3249  167.6703 C.3     1  UNL1        0.0897
      9 C         143.0538  141.9934  166.2330 C.3     1  UNL1        0.0896
     10 N         143.0994  140.5613  165.7892 N.3     1  UNL1       -0.2710
     11 C         142.8725  139.4607  166.7827 C.3     1  UNL1        0.0896
     12 C         142.6000  139.7922  168.2200 C.3     1  UNL1        0.0897
     13 C         142.2818  141.5557  170.1011 C.3     1  UNL1        0.0722
     14 C         140.8892  141.4408  170.6462 C.3     1  UNL1        0.0173
     15 C         140.3500  143.8896  169.9660 C.3     1  UNL1        0.0000
     16 C         139.8865  142.5233  170.3764 C.3     1  UNL1        0.0014
     17 C         142.2250  139.3012  164.6204 C.3     1  UNL1        0.1143
     18 N         140.8726  139.5925  164.0406 N.am    1  UNL1       -0.2425
     19 C         139.8708  138.4875  163.8818 C.2     1  UNL1        0.2304
     20 O         140.2214  137.0911  164.3027 O.2     1  UNL1       -0.2745
     21 C         140.5220  140.9889  163.6197 C.ar    1  UNL1        0.1373
     22 C         140.7099  141.4116  162.1928 C.ar    1  UNL1        0.0347
     23 C         140.3593  142.8080  161.7718 C.ar    1  UNL1        0.0044
     24 C         139.8208  143.7816  162.7778 C.ar    1  UNL1        0.0232
     25 C         139.6329  143.3590  164.2047 C.ar    1  UNL1        0.1540
     26 N         139.9835  141.9626  164.6256 N.ar    1  UNL1       -0.2263
     27 C         139.0944  144.3327  165.2106 C.3     1  UNL1        0.4349
     28 F         138.5560  145.3064  166.2166 F       1  UNL1       -0.1644
     29 F         138.4730  145.1322  164.1041 F       1  UNL1       -0.1644
     30 F         139.7159  143.5331  166.3173 F       1  UNL1       -0.1644
     31 C         138.5184  138.7787  163.3020 C.3     1  UNL1        0.0857
     32 C         138.2109  138.3937  161.8853 C.3     1  UNL1        0.0101
@<TRIPOS>BOND
     1    15    16    1
     2    16    14    1
     3    14    13    1
     4    13     7    1
     5     7     8    1
     6     8     9    1
     7     9    10    1
     8    10     1    1
     9     1    17    1
    10    17    18    1
    11    18    19   am
    12    19    20    2
    13    19    31    1
    14    31    32    1
    15    18    21    1
    16    21    22   ar
    17    22    23   ar
    18    23    24   ar
    19    24    25   ar
    20    25    27    1
    21    27    28    1
    22    27    29    1
    23    27    30    1
    24    25    26   ar
    25     1     2    1
    26     2     3    1
    27     3     4    1
    28     4     5    1
    29     5     6    1
    30    10    11    1
    31    11    12    1
    32    12     7    1
    33     6     1    1
    34    26    21   ar
@<TRIPOS>MOLECULE
*****
 32 34 0 0 0
SMALL
GASTEIGER

@<TRIPOS>ATOM
      1 C         141.0905  141.1739  167.1654 C.3     1  UNL1        0.0690
      2 C         139.9159  140.6229  167.9182 C.3     1  UNL1        0.0485
      3 C         139.6808  141.0289  169.3430 C.3     1  UNL1        0.1436
      4 O         140.6202  141.9859  170.0149 O.3     1  UNL1       -0.3537
      5 C         141.7948  142.5369  169.2621 C.3     1  UNL1        0.1436
      6 C         142.0299  142.1309  167.8373 C.3     1  UNL1        0.0485
      7 N         139.2771  138.5618  163.9813 N.3     1  UNL1       -0.2703
      8 C         138.4169  139.5323  164.7349 C.3     1  UNL1        0.0897
      9 C         139.0214  140.4030  165.7963 C.3     1  UNL1        0.0896
     10 N         140.4860  140.3032  166.1040 N.3     1  UNL1       -0.2710
     11 C         141.3462  139.3326  165.3504 C.3     1  UNL1        0.0896
     12 C         140.7418  138.4620  164.2890 C.3     1  UNL1        0.0897
     13 C         138.6727  137.6911  162.9199 C.3     1  UNL1        0.0722
     14 C         138.9636  137.9605  161.4733 C.3     1  UNL1        0.0173
     15 C         140.4693  139.9325  160.7023 C.3     1  UNL1        0.0000
     16 C         139.1073  139.3723  160.9874 C.3     1  UNL1        0.0014
     17 C         142.0551  141.4225  166.0440 C.3     1  UNL1        0.1143
     18 N         141.9639  142.6873  165.2427 N.am    1  UNL1       -0.2425
     19 C         143.2056  143.4690  164.9312 C.2     1  UNL1        0.2304
     20 O         144.5385  142.9860  165.4210 O.2     1  UNL1       -0.2745
     21 C         140.6309  143.1703  164.7529 C.ar    1  UNL1        0.1373
     22 C         139.7866  144.0526  165.6240 C.ar    1  UNL1        0.0347
     23 C         138.4536  144.5356  165.1342 C.ar    1  UNL1        0.0044
     24 C         137.9650  144.1363  163.7734 C.ar    1  UNL1        0.0232
     25 C         138.8093  143.2540  162.9024 C.ar    1  UNL1        0.1540
     26 N         140.1423  142.7710  163.3922 N.ar    1  UNL1       -0.2263
     27 C         138.3206  142.8548  161.5416 C.3     1  UNL1        0.4349
     28 F         137.8317  142.4554  160.1808 F       1  UNL1       -0.1644
     29 F         139.3049  143.7953  160.9120 F       1  UNL1       -0.1644
     30 F         137.3362  141.9141  162.1712 F       1  UNL1       -0.1644
     31 C         143.1144  144.7338  164.1300 C.3     1  UNL1        0.0857
     32 C         143.9842  144.9210  162.9224 C.3     1  UNL1        0.0101
@<TRIPOS>BOND
     1    15    16    1
     2    16    14    1
     3    14    13    1
     4    13     7    1
     5     7     8    1
     6     8     9    1
     7     9    10    1
     8    10     1    1
     9     1    17    1
    10    17    18    1
    11    18    19   am
    12    19    20    2
    13    19    31    1
    14    31    32    1
    15    18    21    1
    16    21    22   ar
    17    22    23   ar
    18    23    24   ar
    19    24    25   ar
    20    25    27    1
    21    27    28    1
    22    27    29    1
    23    27    30    1
    24    25    26   ar
    25     1     2    1
    26     2     3    1
    27     3     4    1
    28     4     5    1
    29     5     6    1
    30    10    11    1
    31    11    12    1
    32    12     7    1
    33     6     1    1
    34    26    21   ar
@<TRIPOS>MOLECULE
*****
 32 34 0 0 0
SMALL
GASTEIGER

@<TRIPOS>ATOM
      1 C         142.6959  142.7232  164.0968 C.3     1  UNL1        0.0690
      2 C         142.0948  144.0819  164.3034 C.3     1  UNL1        0.0485
      3 C         142.0367  145.0572  163.1652 C.3     1  UNL1        0.1436
      4 O         142.5797  144.6739  161.8206 O.3     1  UNL1       -0.3537
      5 C         143.1808  143.3153  161.6140 C.3     1  UNL1        0.1436
      6 C         143.2389  142.3399  162.7522 C.3     1  UNL1        0.0485
      7 N         141.5557  142.4212  168.4395 N.3     1  UNL1       -0.2703
      8 C         142.9801  142.2063  168.0213 C.3     1  UNL1        0.0897
      9 C         143.3602  142.3070  166.5738 C.3     1  UNL1        0.0896
     10 N         142.3159  142.6226  165.5444 N.3     1  UNL1       -0.2710
     11 C         140.8915  142.8374  165.9625 C.3     1  UNL1        0.0896
     12 C         140.5114  142.7368  167.4100 C.3     1  UNL1        0.0897
     13 C         141.1756  142.3205  169.8870 C.3     1  UNL1        0.0722
     14 C         141.2870  141.0067  170.6021 C.3     1  UNL1        0.0173
     15 C         138.9048  140.3142  169.8302 C.3     1  UNL1        0.0000
     16 C         140.0828  140.1229  170.7390 C.3     1  UNL1        0.0014
     17 C         143.1651  141.3296  164.3930 C.3     1  UNL1        0.1143
     18 N         142.4798  140.1565  163.7570 N.am    1  UNL1       -0.2425
     19 C         143.2886  139.1027  163.0604 C.2     1  UNL1        0.2304
     20 O         144.7826  139.2219  162.9998 O.2     1  UNL1       -0.2745
     21 C         140.9858  140.0374  163.8177 C.ar    1  UNL1        0.1373
     22 C         140.1348  140.7537  162.8113 C.ar    1  UNL1        0.0347
     23 C         138.6408  140.6345  162.8720 C.ar    1  UNL1        0.0044
     24 C         137.9978  139.7991  163.9390 C.ar    1  UNL1        0.0232
     25 C         138.8488  139.0827  164.9454 C.ar    1  UNL1        0.1540
     26 N         140.3428  139.2019  164.8847 N.ar    1  UNL1       -0.2263
     27 C         138.2057  138.2473  166.0124 C.3     1  UNL1        0.4349
     28 F         137.5626  137.4117  167.0793 F       1  UNL1       -0.1644
     29 F         137.6113  139.4825  166.6214 F       1  UNL1       -0.1644
     30 F         138.8001  137.0120  165.4034 F       1  UNL1       -0.1644
     31 C         142.6035  137.9297  162.4245 C.3     1  UNL1        0.0857
     32 C         142.2336  137.9743  160.9715 C.3     1  UNL1        0.0101
@<TRIPOS>BOND
     1    15    16    1
     2    16    14    1
     3    14    13    1
     4    13     7    1
     5     7     8    1
     6     8     9    1
     7     9    10    1
     8    10     1    1
     9     1    17    1
    10    17    18    1
    11    18    19   am
    12    19    20    2
    13    19    31    1
    14    31    32    1
    15    18    21    1
    16    21    22   ar
    17    22    23   ar
    18    23    24   ar
    19    24    25   ar
    20    25    27    1
    21    27    28    1
    22    27    29    1
    23    27    30    1
    24    25    26   ar
    25     1     2    1
    26     2     3    1
    27     3     4    1
    28     4     5    1
    29     5     6    1
    30    10    11    1
    31    11    12    1
    32    12     7    1
    33     6     1    1
    34    26    21   ar
@<TRIPOS>MOLECULE
*****
 32 34 0 0 0
SMALL
GASTEIGER

@<TRIPOS>ATOM
      1 C         139.9588  139.0969  164.4764 C.3     1  UNL1        0.0690
      2 C         140.9246  137.9978  164.8067 C.3     1  UNL1        0.0485
      3 C         141.2870  136.9800  163.7662 C.3     1  UNL1        0.1436
      4 O         140.6836  137.0613  162.3953 O.3     1  UNL1       -0.3537
      5 C         139.7178  138.1604  162.0650 C.3     1  UNL1        0.1436
      6 C         139.3554  139.1782  163.1055 C.3     1  UNL1        0.0485
      7 N         140.8729  140.1218  168.7617 N.3     1  UNL1       -0.2703
      8 C         139.4500  140.0704  168.2900 C.3     1  UNL1        0.0897
      9 C         139.1453  139.7287  166.8615 C.3     1  UNL1        0.0896
     10 N         140.2635  139.4386  165.9048 N.3     1  UNL1       -0.2710
     11 C         141.6864  139.4900  166.3765 C.3     1  UNL1        0.0896
     12 C         141.9911  139.8316  167.8050 C.3     1  UNL1        0.0897
     13 C         141.1776  140.4634  170.1901 C.3     1  UNL1        0.0722
     14 C         141.9545  141.7047  170.5151 C.3     1  UNL1        0.0173
     15 C         140.4361  143.6477  169.6969 C.3     1  UNL1        0.0000
     16 C         141.7620  142.9461  169.6955 C.3     1  UNL1        0.0014
     17 C         139.0988  140.3147  164.6421 C.3     1  UNL1        0.1143
     18 N         139.4199  141.5685  163.8839 N.am    1  UNL1       -0.2425
     19 C         138.3500  142.2622  163.0940 C.2     1  UNL1        0.2304
     20 O         136.9588  141.7021  163.0624 O.2     1  UNL1       -0.2745
     21 C         140.8111  142.1286  163.9155 C.ar    1  UNL1        0.1373
     22 C         141.3097  142.8293  165.1445 C.ar    1  UNL1        0.0347
     23 C         142.7009  143.3893  165.1762 C.ar    1  UNL1        0.0044
     24 C         143.5933  143.2487  163.9789 C.ar    1  UNL1        0.0232
     25 C         143.0947  142.5481  162.7498 C.ar    1  UNL1        0.1540
     26 N         141.7036  141.9880  162.7182 N.ar    1  UNL1       -0.2263
     27 C         143.9873  142.4075  161.5525 C.3     1  UNL1        0.4349
     28 F         144.8799  142.2669  160.3552 F       1  UNL1       -0.1644
     29 F         144.7433  143.6332  161.9721 F       1  UNL1       -0.1644
     30 F         143.2313  141.1817  161.1329 F       1  UNL1       -0.1644
     31 C         138.6710  143.5159  162.3358 C.3     1  UNL1        0.0857
     32 C         138.6475  144.8425  163.0355 C.3     1  UNL1        0.0101
@<TRIPOS>BOND
     1    15    16    1
     2    16    14    1
     3    14    13    1
     4    13     7    1
     5     7     8    1
     6     8     9    1
     7     9    10    1
     8    10     1    1
     9     1    17    1
    10    17    18    1
    11    18    19   am
    12    19    20    2
    13    19    31    1
    14    31    32    1
    15    18    21    1
    16    21    22   ar
    17    22    23   ar
    18    23    24   ar
    19    24    25   ar
    20    25    27    1
    21    27    28    1
    22    27    29    1
    23    27    30    1
    24    25    26   ar
    25     1     2    1
    26     2     3    1
    27     3     4    1
    28     4     5    1
    29     5     6    1
    30    10    11    1
    31    11    12    1
    32    12     7    1
    33     6     1    1
    34    26    21   ar
