@<TRIPOS>MOLECULE
*****
 39 44 0 0 0
SMALL
GASTEIGER

@<TRIPOS>ATOM
      1 C         146.4156  143.0907  154.8941 C.3     1  UNL1        0.0437
      2 C         145.4589  141.9571  155.1172 C.3     1  UNL1        0.1368
      3 C         145.6726  141.8304  153.6379 C.3     1  UNL1        0.0437
      4 C         144.5765  140.7795  154.8265 C.3     1  UNL1        0.0643
      5 C         143.8126  140.1223  155.9376 C.3     1  UNL1        0.1024
      6 C         143.9312  140.6427  157.3394 C.ar    1  UNL1        0.0488
      7 C         143.1673  139.9855  158.4505 C.ar    1  UNL1        0.0034
      8 C         143.2859  140.5059  159.8523 C.ar    1  UNL1        0.0177
      9 C         144.1683  141.6836  160.1431 C.ar    1  UNL1        0.0851
     10 N         144.9322  142.3408  159.0319 N.ar    1  UNL1       -0.2119
     11 C         144.8136  141.8203  157.6301 C.ar    1  UNL1        0.2219
     12 O         145.5775  142.4775  156.5190 O.3     1  UNL1       -0.4676
     13 C         144.2869  142.2040  161.5449 C.ar    1  UNL1        0.0284
     14 C         145.2585  141.5748  162.4988 C.ar    1  UNL1        0.0032
     15 C         145.3771  142.0953  163.9007 C.ar    1  UNL1        0.0115
     16 C         144.5239  143.2449  164.3485 C.ar    1  UNL1        0.0585
     17 CL        144.6425  143.7653  165.7503 Cl      1  UNL1       -0.0822
     18 C         143.5523  143.8740  163.3946 C.ar    1  UNL1        0.0228
     19 C         143.4337  143.3536  161.9928 C.ar    1  UNL1        0.0599
     20 CL        142.4620  143.9828  161.0388 Cl      1  UNL1       -0.0822
     21 C         142.5220  139.8487  160.9635 C.ar    1  UNL1        0.0015
     22 C         143.1010  138.6590  161.6703 C.ar    1  UNL1        0.0009
     23 C         142.3371  138.0018  162.7814 C.ar    1  UNL1        0.0114
     24 C         140.9943  138.5343  163.1857 C.ar    1  UNL1        0.0577
     25 CL        140.2304  137.8771  164.2968 Cl      1  UNL1       -0.0822
     26 C         140.4154  139.7239  162.4789 C.ar    1  UNL1        0.0114
     27 C         141.1793  140.3811  161.3678 C.ar    1  UNL1        0.0009
     28 N         142.9302  138.9446  155.6469 N.am    1  UNL1       -0.2974
     29 C         143.5328  137.5836  155.4613 C.2     1  UNL1        0.2618
     30 O         145.0178  137.4002  155.5664 O.2     1  UNL1       -0.2688
     31 H         141.9555  139.0650  155.5779 H       1  UNL1        0.1500
     32 C         142.6503  136.4059  155.1706 C.2     1  UNL1        0.1384
     33 N         141.4566  136.4018  154.2623 N.2     1  UNL1       -0.1480
     34 N         140.8751  135.0189  154.2674 N.2     1  UNL1       -0.1565
     35 C         141.7096  134.1686  155.1789 C.2     1  UNL1        0.0637
     36 C         142.8067  135.0259  155.7370 C.3     1  UNL1        0.0844
     37 C         143.6411  134.1756  156.6484 C.3     1  UNL1        0.0122
     38 C         143.0598  132.7928  156.6536 C.3     1  UNL1        0.0068
     39 C         141.8660  132.7886  155.7453 C.3     1  UNL1        0.0436
@<TRIPOS>BOND
     1     1     2    1
     2     2     3    1
     3     2     4    1
     4     4     5    1
     5     5    28    1
     6    28    29   am
     7    29    30    2
     8    29    32    1
     9    32    33    2
    10    33    34    1
    11    34    35    2
    12    35    36    1
    13    36    37    1
    14    37    38    1
    15    38    39    1
    16     5     6    1
    17     6     7   ar
    18     7     8   ar
    19     8    21    1
    20    21    22   ar
    21    22    23   ar
    22    23    24   ar
    23    24    25    1
    24    24    26   ar
    25    26    27   ar
    26     8     9   ar
    27     9    13    1
    28    13    14   ar
    29    14    15   ar
    30    15    16   ar
    31    16    17    1
    32    16    18   ar
    33    18    19   ar
    34    19    20    1
    35     9    10   ar
    36    10    11   ar
    37    11    12    1
    38    12     2    1
    39    36    32    1
    40    11     6   ar
    41    39    35    1
    42    27    21   ar
    43    19    13   ar
    44    28    31    1
@<TRIPOS>MOLECULE
*****
 39 44 0 0 0
SMALL
GASTEIGER

@<TRIPOS>ATOM
      1 C         136.5430  143.0279  155.4012 C.3     1  UNL1        0.0437
      2 C         137.6163  142.0337  155.7323 C.3     1  UNL1        0.1368
      3 C         137.3942  141.7052  154.2856 C.3     1  UNL1        0.0437
      4 C         138.6124  140.9254  155.5610 C.3     1  UNL1        0.0643
      5 C         139.4578  140.4908  156.7213 C.3     1  UNL1        0.1024
      6 C         139.3071  141.1645  158.0530 C.ar    1  UNL1        0.0488
      7 C         140.1526  140.7300  159.2133 C.ar    1  UNL1        0.0034
      8 C         140.0019  141.4037  160.5449 C.ar    1  UNL1        0.0177
      9 C         139.0057  142.5120  160.7163 C.ar    1  UNL1        0.0851
     10 N         138.1603  142.9466  159.5560 N.ar    1  UNL1       -0.2119
     11 C         138.3110  142.2728  158.2243 C.ar    1  UNL1        0.2219
     12 O         137.4656  142.7074  157.0639 O.3     1  UNL1       -0.4676
     13 C         138.8551  143.1857  162.0480 C.ar    1  UNL1        0.0284
     14 C         137.8566  142.6693  163.0411 C.ar    1  UNL1        0.0032
     15 C         137.7059  143.3431  164.3728 C.ar    1  UNL1        0.0115
     16 C         138.5537  144.5332  164.7114 C.ar    1  UNL1        0.0585
     17 CL        138.4031  145.2069  166.0430 Cl      1  UNL1       -0.0822
     18 C         139.5522  145.0497  163.7182 C.ar    1  UNL1        0.0228
     19 C         139.7029  144.3760  162.3866 C.ar    1  UNL1        0.0599
     20 CL        140.7014  144.8924  161.3935 Cl      1  UNL1       -0.0822
     21 C         140.8473  140.9691  161.7053 C.ar    1  UNL1        0.0015
     22 C         140.3529  139.9008  162.6350 C.ar    1  UNL1        0.0009
     23 C         141.1983  139.4662  163.7954 C.ar    1  UNL1        0.0114
     24 C         142.5382  140.0999  164.0259 C.ar    1  UNL1        0.0577
     25 CL        143.3837  139.6654  165.1863 Cl      1  UNL1       -0.0822
     26 C         143.0326  141.1682  163.0962 C.ar    1  UNL1        0.0114
     27 C         142.1872  141.6027  161.9359 C.ar    1  UNL1        0.0009
     28 N         140.4540  139.3825  156.5499 N.am    1  UNL1       -0.2974
     29 C         141.8330  139.6852  156.0435 C.2     1  UNL1        0.2618
     30 O         142.2160  141.0962  155.7085 O.2     1  UNL1       -0.2688
     31 H         140.2026  138.4563  156.7698 H       1  UNL1        0.1500
     32 C         142.8292  138.5768  155.8722 C.2     1  UNL1        0.1384
     33 N         144.3126  138.7403  155.7206 N.2     1  UNL1       -0.1480
     34 N         144.9171  137.3750  155.5770 N.2     1  UNL1       -0.1565
     35 C         143.8072  136.3678  155.6398 C.2     1  UNL1        0.0637
     36 C         142.5169  137.1106  155.8222 C.3     1  UNL1        0.0844
     37 C         141.4072  136.1034  155.8850 C.3     1  UNL1        0.0122
     38 C         142.0115  134.7381  155.7414 C.3     1  UNL1        0.0068
     39 C         143.4949  134.9015  155.5899 C.3     1  UNL1        0.0436
@<TRIPOS>BOND
     1     1     2    1
     2     2     3    1
     3     2     4    1
     4     4     5    1
     5     5    28    1
     6    28    29   am
     7    29    30    2
     8    29    32    1
     9    32    33    2
    10    33    34    1
    11    34    35    2
    12    35    36    1
    13    36    37    1
    14    37    38    1
    15    38    39    1
    16     5     6    1
    17     6     7   ar
    18     7     8   ar
    19     8    21    1
    20    21    22   ar
    21    22    23   ar
    22    23    24   ar
    23    24    25    1
    24    24    26   ar
    25    26    27   ar
    26     8     9   ar
    27     9    13    1
    28    13    14   ar
    29    14    15   ar
    30    15    16   ar
    31    16    17    1
    32    16    18   ar
    33    18    19   ar
    34    19    20    1
    35     9    10   ar
    36    10    11   ar
    37    11    12    1
    38    12     2    1
    39    36    32    1
    40    11     6   ar
    41    39    35    1
    42    27    21   ar
    43    19    13   ar
    44    28    31    1
@<TRIPOS>MOLECULE
*****
 39 44 0 0 0
SMALL
GASTEIGER

@<TRIPOS>ATOM
      1 C         136.4433  142.8250  155.3524 C.3     1  UNL1        0.0437
      2 C         137.6732  142.0095  155.6219 C.3     1  UNL1        0.1368
      3 C         137.4457  141.6688  154.1789 C.3     1  UNL1        0.0437
      4 C         138.8240  141.0758  155.3902 C.3     1  UNL1        0.0643
      5 C         139.7751  140.7660  156.5080 C.3     1  UNL1        0.1024
      6 C         139.5755  141.3899  157.8573 C.ar    1  UNL1        0.0488
      7 C         140.5266  141.0801  158.9751 C.ar    1  UNL1        0.0034
      8 C         140.3270  141.7040  160.3244 C.ar    1  UNL1        0.0177
      9 C         139.1761  142.6378  160.5561 C.ar    1  UNL1        0.0851
     10 N         138.2250  142.9477  159.4384 N.ar    1  UNL1       -0.2119
     11 C         138.4247  142.3237  158.0889 C.ar    1  UNL1        0.2219
     12 O         137.4735  142.6335  156.9712 O.3     1  UNL1       -0.4676
     13 C         138.9765  143.2618  161.9054 C.ar    1  UNL1        0.0284
     14 C         139.6703  144.5469  162.2476 C.ar    1  UNL1        0.0032
     15 C         139.4707  145.1708  163.5970 C.ar    1  UNL1        0.0115
     16 C         138.5772  144.5096  164.6042 C.ar    1  UNL1        0.0585
     17 CL        138.3775  145.1336  165.9536 Cl      1  UNL1       -0.0822
     18 C         137.8833  143.2245  164.2621 C.ar    1  UNL1        0.0228
     19 C         138.0830  142.6006  162.9127 C.ar    1  UNL1        0.0599
     20 CL        137.3891  141.3155  162.5706 Cl      1  UNL1       -0.0822
     21 C         141.2782  141.3942  161.4421 C.ar    1  UNL1        0.0015
     22 C         142.5341  142.1985  161.6028 C.ar    1  UNL1        0.0009
     23 C         143.4853  141.8887  162.7205 C.ar    1  UNL1        0.0114
     24 C         143.1805  140.7745  163.6776 C.ar    1  UNL1        0.0577
     25 CL        144.1316  140.4647  164.7953 Cl      1  UNL1       -0.0822
     26 C         141.9246  139.9703  163.5169 C.ar    1  UNL1        0.0114
     27 C         140.9734  140.2801  162.3991 C.ar    1  UNL1        0.0009
     28 N         140.9260  139.8321  156.2763 N.am    1  UNL1       -0.2974
     29 C         140.7329  138.3522  156.4263 C.2     1  UNL1        0.2618
     30 O         139.3891  137.8061  156.8080 O.2     1  UNL1       -0.2688
     31 H         141.8080  140.1906  156.0258 H       1  UNL1        0.1500
     32 C         141.8838  137.4184  156.1946 C.2     1  UNL1        0.1384
     33 N         143.3163  137.6781  156.5559 N.2     1  UNL1       -0.1480
     34 N         144.1221  136.4812  156.1455 N.2     1  UNL1       -0.1565
     35 C         143.1874  135.4819  155.5307 C.2     1  UNL1        0.0637
     36 C         141.8042  136.0611  155.5611 C.3     1  UNL1        0.0844
     37 C         140.8696  135.0619  154.9462 C.3     1  UNL1        0.0122
     38 C         141.6753  133.8650  154.5359 C.3     1  UNL1        0.0068
     39 C         143.1078  134.1246  154.8972 C.3     1  UNL1        0.0436
@<TRIPOS>BOND
     1     1     2    1
     2     2     3    1
     3     2     4    1
     4     4     5    1
     5     5    28    1
     6    28    29   am
     7    29    30    2
     8    29    32    1
     9    32    33    2
    10    33    34    1
    11    34    35    2
    12    35    36    1
    13    36    37    1
    14    37    38    1
    15    38    39    1
    16     5     6    1
    17     6     7   ar
    18     7     8   ar
    19     8    21    1
    20    21    22   ar
    21    22    23   ar
    22    23    24   ar
    23    24    25    1
    24    24    26   ar
    25    26    27   ar
    26     8     9   ar
    27     9    13    1
    28    13    14   ar
    29    14    15   ar
    30    15    16   ar
    31    16    17    1
    32    16    18   ar
    33    18    19   ar
    34    19    20    1
    35     9    10   ar
    36    10    11   ar
    37    11    12    1
    38    12     2    1
    39    36    32    1
    40    11     6   ar
    41    39    35    1
    42    27    21   ar
    43    19    13   ar
    44    28    31    1
@<TRIPOS>MOLECULE
*****
 39 44 0 0 0
SMALL
GASTEIGER

@<TRIPOS>ATOM
      1 C         144.0047  142.8316  155.4664 C.3     1  UNL1        0.0437
      2 C         143.8075  141.4415  155.9944 C.3     1  UNL1        0.1368
      3 C         144.5551  141.1364  154.7303 C.3     1  UNL1        0.0437
      4 C         143.8699  139.9455  156.0834 C.3     1  UNL1        0.0643
      5 C         143.2532  139.2373  157.2531 C.3     1  UNL1        0.1024
      6 C         142.5740  140.0252  158.3338 C.ar    1  UNL1        0.0488
      7 C         141.9573  139.3171  159.5035 C.ar    1  UNL1        0.0034
      8 C         141.2782  140.1049  160.5842 C.ar    1  UNL1        0.0177
      9 C         141.2157  141.6010  160.4952 C.ar    1  UNL1        0.0851
     10 N         141.8324  142.3092  159.3255 N.ar    1  UNL1       -0.2119
     11 C         142.5116  141.5212  158.2448 C.ar    1  UNL1        0.2219
     12 O         143.1283  142.2294  157.0751 O.3     1  UNL1       -0.4676
     13 C         140.5365  142.3889  161.5759 C.ar    1  UNL1        0.0284
     14 C         141.3314  142.9105  162.7362 C.ar    1  UNL1        0.0032
     15 C         140.6521  143.6984  163.8169 C.ar    1  UNL1        0.0115
     16 C         139.1781  143.9647  163.7374 C.ar    1  UNL1        0.0585
     17 CL        138.4990  144.7526  164.8181 Cl      1  UNL1       -0.0822
     18 C         138.3833  143.4431  162.5771 C.ar    1  UNL1        0.0228
     19 C         139.0625  142.6552  161.4964 C.ar    1  UNL1        0.0599
     20 CL        138.2676  142.1336  160.3362 Cl      1  UNL1       -0.0822
     21 C         140.6614  139.3968  161.7539 C.ar    1  UNL1        0.0015
     22 C         139.2599  138.8707  161.6582 C.ar    1  UNL1        0.0009
     23 C         138.6432  138.1625  162.8279 C.ar    1  UNL1        0.0114
     24 C         139.4280  137.9805  164.0933 C.ar    1  UNL1        0.0577
     25 CL        138.8113  137.2723  165.2630 Cl      1  UNL1       -0.0822
     26 C         140.8294  138.5066  164.1889 C.ar    1  UNL1        0.0114
     27 C         141.4461  139.2147  163.0192 C.ar    1  UNL1        0.0009
     28 N         143.3156  137.7412  157.3421 N.am    1  UNL1       -0.2974
     29 C         142.4868  136.8997  156.4175 C.2     1  UNL1        0.2618
     30 O         141.5955  137.5542  155.4040 O.2     1  UNL1       -0.2688
     31 H         143.9006  137.3117  158.0073 H       1  UNL1        0.1500
     32 C         142.5493  135.4036  156.5065 C.2     1  UNL1        0.1384
     33 N         143.1155  134.6111  157.6473 N.2     1  UNL1       -0.1480
     34 N         142.9727  133.1551  157.3162 N.2     1  UNL1       -0.1565
     35 C         142.3182  133.0477  155.9707 C.2     1  UNL1        0.0637
     36 C         142.0565  134.4374  155.4703 C.3     1  UNL1        0.0844
     37 C         141.4021  134.3300  154.1249 C.3     1  UNL1        0.0122
     38 C         141.2592  132.8741  153.7938 C.3     1  UNL1        0.0068
     39 C         141.8254  132.0815  154.9345 C.3     1  UNL1        0.0436
@<TRIPOS>BOND
     1     1     2    1
     2     2     3    1
     3     2     4    1
     4     4     5    1
     5     5    28    1
     6    28    29   am
     7    29    30    2
     8    29    32    1
     9    32    33    2
    10    33    34    1
    11    34    35    2
    12    35    36    1
    13    36    37    1
    14    37    38    1
    15    38    39    1
    16     5     6    1
    17     6     7   ar
    18     7     8   ar
    19     8    21    1
    20    21    22   ar
    21    22    23   ar
    22    23    24   ar
    23    24    25    1
    24    24    26   ar
    25    26    27   ar
    26     8     9   ar
    27     9    13    1
    28    13    14   ar
    29    14    15   ar
    30    15    16   ar
    31    16    17    1
    32    16    18   ar
    33    18    19   ar
    34    19    20    1
    35     9    10   ar
    36    10    11   ar
    37    11    12    1
    38    12     2    1
    39    36    32    1
    40    11     6   ar
    41    39    35    1
    42    27    21   ar
    43    19    13   ar
    44    28    31    1
@<TRIPOS>MOLECULE
*****
 39 44 0 0 0
SMALL
GASTEIGER

@<TRIPOS>ATOM
      1 C         136.9507  143.8992  155.0976 C.3     1  UNL1        0.0437
      2 C         137.4611  142.5061  155.3187 C.3     1  UNL1        0.1368
      3 C         137.1723  142.4475  153.8478 C.3     1  UNL1        0.0437
      4 C         137.8712  141.0927  155.0289 C.3     1  UNL1        0.0643
      5 C         138.3928  140.2217  156.1331 C.3     1  UNL1        0.1024
      6 C         138.5043  140.7642  157.5271 C.ar    1  UNL1        0.0488
      7 C         139.0259  139.8932  158.6313 C.ar    1  UNL1        0.0034
      8 C         139.1375  140.4356  160.0253 C.ar    1  UNL1        0.0177
      9 C         138.7273  141.8491  160.3152 C.ar    1  UNL1        0.0851
     10 N         138.2057  142.7201  159.2109 N.ar    1  UNL1       -0.2119
     11 C         138.0942  142.1776  157.8169 C.ar    1  UNL1        0.2219
     12 O         137.5726  143.0486  156.7127 O.3     1  UNL1       -0.4676
     13 C         138.8389  142.3915  161.7092 C.ar    1  UNL1        0.0284
     14 C         137.7055  142.2145  162.6757 C.ar    1  UNL1        0.0032
     15 C         137.8171  142.7570  164.0698 C.ar    1  UNL1        0.0115
     16 C         139.0619  143.4764  164.4972 C.ar    1  UNL1        0.0585
     17 CL        139.1735  144.0189  165.8912 Cl      1  UNL1       -0.0822
     18 C         140.1953  143.6534  163.5307 C.ar    1  UNL1        0.0228
     19 C         140.0838  143.1110  162.1367 C.ar    1  UNL1        0.0599
     20 CL        141.2171  143.2880  161.1701 Cl      1  UNL1       -0.0822
     21 C         139.6591  139.5646  161.1295 C.ar    1  UNL1        0.0015
     22 C         141.1087  139.6241  161.5105 C.ar    1  UNL1        0.0009
     23 C         141.6303  138.7532  162.6147 C.ar    1  UNL1        0.0114
     24 C         140.7023  137.8226  163.3380 C.ar    1  UNL1        0.0577
     25 CL        141.2239  136.9517  164.4422 Cl      1  UNL1       -0.0822
     26 C         139.2527  137.7631  162.9570 C.ar    1  UNL1        0.0114
     27 C         138.7311  138.6341  161.8527 C.ar    1  UNL1        0.0009
     28 N         138.8029  138.8082  155.8433 N.am    1  UNL1       -0.2974
     29 C         140.2029  138.5105  155.3944 C.2     1  UNL1        0.2618
     30 O         141.1927  139.6262  155.2354 O.2     1  UNL1       -0.2688
     31 H         138.1532  138.0759  155.9476 H       1  UNL1        0.1500
     32 C         140.6130  137.0970  155.1046 C.2     1  UNL1        0.1384
     33 N         140.0926  136.2391  153.9895 N.2     1  UNL1       -0.1480
     34 N         140.7735  134.9052  154.0747 N.2     1  UNL1       -0.1565
     35 C         141.7145  134.9388  155.2423 C.2     1  UNL1        0.0637
     36 C         141.6153  136.2934  155.8788 C.3     1  UNL1        0.0844
     37 C         142.5563  136.3269  157.0464 C.3     1  UNL1        0.0122
     38 C         143.2371  134.9931  157.1316 C.3     1  UNL1        0.0068
     39 C         142.7168  134.1351  156.0166 C.3     1  UNL1        0.0436
@<TRIPOS>BOND
     1     1     2    1
     2     2     3    1
     3     2     4    1
     4     4     5    1
     5     5    28    1
     6    28    29   am
     7    29    30    2
     8    29    32    1
     9    32    33    2
    10    33    34    1
    11    34    35    2
    12    35    36    1
    13    36    37    1
    14    37    38    1
    15    38    39    1
    16     5     6    1
    17     6     7   ar
    18     7     8   ar
    19     8    21    1
    20    21    22   ar
    21    22    23   ar
    22    23    24   ar
    23    24    25    1
    24    24    26   ar
    25    26    27   ar
    26     8     9   ar
    27     9    13    1
    28    13    14   ar
    29    14    15   ar
    30    15    16   ar
    31    16    17    1
    32    16    18   ar
    33    18    19   ar
    34    19    20    1
    35     9    10   ar
    36    10    11   ar
    37    11    12    1
    38    12     2    1
    39    36    32    1
    40    11     6   ar
    41    39    35    1
    42    27    21   ar
    43    19    13   ar
    44    28    31    1
@<TRIPOS>MOLECULE
*****
 39 44 0 0 0
SMALL
GASTEIGER

@<TRIPOS>ATOM
      1 C         144.0441  135.4762  156.0783 C.3     1  UNL1        0.0437
      2 C         142.9244  136.4735  156.0358 C.3     1  UNL1        0.1368
      3 C         142.9918  136.0956  154.5857 C.3     1  UNL1        0.0437
      4 C         141.8282  137.3395  155.4897 C.3     1  UNL1        0.0643
      5 C         141.0534  138.2371  156.4084 C.3     1  UNL1        0.1024
      6 C         141.3748  138.2687  157.8732 C.ar    1  UNL1        0.0488
      7 C         140.6000  139.1663  158.7919 C.ar    1  UNL1        0.0034
      8 C         140.9214  139.1978  160.2567 C.ar    1  UNL1        0.0177
      9 C         142.0177  138.3318  160.8028 C.ar    1  UNL1        0.0851
     10 N         142.7925  137.4342  159.8841 N.ar    1  UNL1       -0.2119
     11 C         142.4710  137.4027  158.4193 C.ar    1  UNL1        0.2219
     12 O         143.2458  136.5051  157.5006 O.3     1  UNL1       -0.4676
     13 C         142.3391  138.3633  162.2676 C.ar    1  UNL1        0.0284
     14 C         141.5146  137.5654  163.2338 C.ar    1  UNL1        0.0032
     15 C         141.8361  137.5970  164.6986 C.ar    1  UNL1        0.0115
     16 C         142.9820  138.4265  165.1973 C.ar    1  UNL1        0.0585
     17 CL        143.3034  138.4580  166.6620 Cl      1  UNL1       -0.0822
     18 C         143.8065  139.2244  164.2311 C.ar    1  UNL1        0.0228
     19 C         143.4851  139.1929  162.7663 C.ar    1  UNL1        0.0599
     20 CL        144.3096  139.9908  161.8002 Cl      1  UNL1       -0.0822
     21 C         140.1466  140.0954  161.1754 C.ar    1  UNL1        0.0015
     22 C         138.8174  139.6527  161.7115 C.ar    1  UNL1        0.0009
     23 C         138.0426  140.5503  162.6302 C.ar    1  UNL1        0.0114
     24 C         138.5970  141.8906  163.0128 C.ar    1  UNL1        0.0577
     25 CL        137.8222  142.7882  163.9315 Cl      1  UNL1       -0.0822
     26 C         139.9261  142.3333  162.4766 C.ar    1  UNL1        0.0114
     27 C         140.7009  141.4357  161.5579 C.ar    1  UNL1        0.0009
     28 N         139.9571  139.1032  155.8622 N.am    1  UNL1       -0.2974
     29 C         138.6307  138.4994  155.5074 C.2     1  UNL1        0.2618
     30 O         138.4004  137.0296  155.6988 O.2     1  UNL1       -0.2688
     31 H         140.1083  140.0679  155.7366 H       1  UNL1        0.1500
     32 C         137.5344  139.3655  154.9613 C.2     1  UNL1        0.1384
     33 N         136.4583  138.9309  154.0110 N.2     1  UNL1       -0.1480
     34 N         135.5806  140.1150  153.7319 N.2     1  UNL1       -0.1565
     35 C         136.1144  141.2812  154.5097 C.2     1  UNL1        0.0637
     36 C         137.3219  140.8180  155.2695 C.3     1  UNL1        0.0844
     37 C         137.8557  141.9842  156.0473 C.3     1  UNL1        0.0122
     38 C         136.9781  143.1682  155.7683 C.3     1  UNL1        0.0068
     39 C         135.9019  142.7338  154.8180 C.3     1  UNL1        0.0436
@<TRIPOS>BOND
     1     1     2    1
     2     2     3    1
     3     2     4    1
     4     4     5    1
     5     5    28    1
     6    28    29   am
     7    29    30    2
     8    29    32    1
     9    32    33    2
    10    33    34    1
    11    34    35    2
    12    35    36    1
    13    36    37    1
    14    37    38    1
    15    38    39    1
    16     5     6    1
    17     6     7   ar
    18     7     8   ar
    19     8    21    1
    20    21    22   ar
    21    22    23   ar
    22    23    24   ar
    23    24    25    1
    24    24    26   ar
    25    26    27   ar
    26     8     9   ar
    27     9    13    1
    28    13    14   ar
    29    14    15   ar
    30    15    16   ar
    31    16    17    1
    32    16    18   ar
    33    18    19   ar
    34    19    20    1
    35     9    10   ar
    36    10    11   ar
    37    11    12    1
    38    12     2    1
    39    36    32    1
    40    11     6   ar
    41    39    35    1
    42    27    21   ar
    43    19    13   ar
    44    28    31    1
@<TRIPOS>MOLECULE
*****
 39 44 0 0 0
SMALL
GASTEIGER

@<TRIPOS>ATOM
      1 C         135.6733  140.7317  156.3831 C.3     1  UNL1        0.0437
      2 C         137.1718  140.7986  156.3679 C.3     1  UNL1        0.1368
      3 C         136.8838  141.0809  154.9231 C.3     1  UNL1        0.0437
      4 C         138.5702  140.9635  155.8511 C.3     1  UNL1        0.0643
      5 C         139.7361  140.8230  156.7842 C.3     1  UNL1        0.1024
      6 C         139.5037  140.5175  158.2342 C.ar    1  UNL1        0.0488
      7 C         140.6697  140.3769  159.1673 C.ar    1  UNL1        0.0034
      8 C         140.4372  140.0714  160.6174 C.ar    1  UNL1        0.0177
      9 C         139.0388  139.9065  161.1343 C.ar    1  UNL1        0.0851
     10 N         137.8728  140.0470  160.2012 N.ar    1  UNL1       -0.2119
     11 C         138.1053  140.3526  158.7511 C.ar    1  UNL1        0.2219
     12 O         136.9393  140.4931  157.8180 O.3     1  UNL1       -0.4676
     13 C         138.8063  139.6010  162.5843 C.ar    1  UNL1        0.0284
     14 C         138.9378  138.1930  163.0846 C.ar    1  UNL1        0.0032
     15 C         138.7054  137.8875  164.5347 C.ar    1  UNL1        0.0115
     16 C         138.3415  138.9900  165.4845 C.ar    1  UNL1        0.0585
     17 CL        138.1090  138.6845  166.9345 Cl      1  UNL1       -0.0822
     18 C         138.2100  140.3980  164.9842 C.ar    1  UNL1        0.0228
     19 C         138.4424  140.7035  163.5342 C.ar    1  UNL1        0.0599
     20 CL        138.3109  142.1115  163.0339 Cl      1  UNL1       -0.0822
     21 C         141.6032  139.9308  161.5505 C.ar    1  UNL1        0.0015
     22 C         142.3713  138.6433  161.6025 C.ar    1  UNL1        0.0009
     23 C         143.5372  138.5028  162.5356 C.ar    1  UNL1        0.0114
     24 C         143.9352  139.6496  163.4168 C.ar    1  UNL1        0.0577
     25 CL        145.1011  139.5091  164.3499 Cl      1  UNL1       -0.0822
     26 C         143.1671  140.9370  163.3648 C.ar    1  UNL1        0.0114
     27 C         142.0012  141.0776  162.4316 C.ar    1  UNL1        0.0009
     28 N         141.1346  140.9879  156.2672 N.am    1  UNL1       -0.2974
     29 C         141.9111  139.7891  155.8090 C.2     1  UNL1        0.2618
     30 O         141.2891  138.4254  155.8677 O.2     1  UNL1       -0.2688
     31 H         141.5428  141.8829  156.2287 H       1  UNL1        0.1500
     32 C         143.3095  139.9540  155.2920 C.2     1  UNL1        0.1384
     33 N         143.8761  139.3105  154.0612 N.2     1  UNL1       -0.1480
     34 N         145.3037  139.7502  153.9236 N.2     1  UNL1       -0.1565
     35 C         145.6193  140.6654  155.0694 C.2     1  UNL1        0.0637
     36 C         144.3868  140.7914  155.9151 C.3     1  UNL1        0.0844
     37 C         144.7025  141.7066  157.0608 C.3     1  UNL1        0.0122
     38 C         146.1300  142.1462  156.9233 C.3     1  UNL1        0.0068
     39 C         146.6966  141.5027  155.6925 C.3     1  UNL1        0.0436
@<TRIPOS>BOND
     1     1     2    1
     2     2     3    1
     3     2     4    1
     4     4     5    1
     5     5    28    1
     6    28    29   am
     7    29    30    2
     8    29    32    1
     9    32    33    2
    10    33    34    1
    11    34    35    2
    12    35    36    1
    13    36    37    1
    14    37    38    1
    15    38    39    1
    16     5     6    1
    17     6     7   ar
    18     7     8   ar
    19     8    21    1
    20    21    22   ar
    21    22    23   ar
    22    23    24   ar
    23    24    25    1
    24    24    26   ar
    25    26    27   ar
    26     8     9   ar
    27     9    13    1
    28    13    14   ar
    29    14    15   ar
    30    15    16   ar
    31    16    17    1
    32    16    18   ar
    33    18    19   ar
    34    19    20    1
    35     9    10   ar
    36    10    11   ar
    37    11    12    1
    38    12     2    1
    39    36    32    1
    40    11     6   ar
    41    39    35    1
    42    27    21   ar
    43    19    13   ar
    44    28    31    1
@<TRIPOS>MOLECULE
*****
 39 44 0 0 0
SMALL
GASTEIGER

@<TRIPOS>ATOM
      1 C         139.7315  145.9153  155.2026 C.3     1  UNL1        0.0437
      2 C         140.1798  144.5074  155.4616 C.3     1  UNL1        0.1368
      3 C         140.3695  144.5719  153.9750 C.3     1  UNL1        0.0437
      4 C         140.6939  143.1220  155.2044 C.3     1  UNL1        0.0643
      5 C         140.8626  142.1610  156.3437 C.3     1  UNL1        0.1024
      6 C         140.5171  142.5855  157.7403 C.ar    1  UNL1        0.0488
      7 C         140.6858  141.6245  158.8796 C.ar    1  UNL1        0.0034
      8 C         140.3404  142.0489  160.2762 C.ar    1  UNL1        0.0177
      9 C         139.8262  143.4344  160.5335 C.ar    1  UNL1        0.0851
     10 N         139.6576  144.3954  159.3942 N.ar    1  UNL1       -0.2119
     11 C         140.0030  143.9709  157.9975 C.ar    1  UNL1        0.2219
     12 O         139.8343  144.9319  156.8582 O.3     1  UNL1       -0.4676
     13 C         139.4808  143.8589  161.9301 C.ar    1  UNL1        0.0284
     14 C         138.1000  143.6219  162.4661 C.ar    1  UNL1        0.0032
     15 C         137.7546  144.0464  163.8628 C.ar    1  UNL1        0.0115
     16 C         138.7900  144.7078  164.7233 C.ar    1  UNL1        0.0585
     17 CL        138.4445  145.1322  166.1199 Cl      1  UNL1       -0.0822
     18 C         140.1707  144.9447  164.1873 C.ar    1  UNL1        0.0228
     19 C         140.5162  144.5203  162.7907 C.ar    1  UNL1        0.0599
     20 CL        141.8969  144.7573  162.2546 Cl      1  UNL1       -0.0822
     21 C         140.5091  141.0879  161.4155 C.ar    1  UNL1        0.0015
     22 C         139.3974  140.1466  161.7735 C.ar    1  UNL1        0.0009
     23 C         139.5661  139.1856  162.9128 C.ar    1  UNL1        0.0114
     24 C         140.8464  139.1660  163.6941 C.ar    1  UNL1        0.0577
     25 CL        141.0151  138.2050  164.8334 Cl      1  UNL1       -0.0822
     26 C         141.9580  140.1073  163.3361 C.ar    1  UNL1        0.0114
     27 C         141.7893  141.0683  162.1968 C.ar    1  UNL1        0.0009
     28 N         141.3767  140.7755  156.0864 N.am    1  UNL1       -0.2974
     29 C         142.8451  140.4886  156.1929 C.2     1  UNL1        0.2618
     30 O         143.7995  141.5872  156.5568 O.2     1  UNL1       -0.2688
     31 H         140.7503  140.0545  155.8475 H       1  UNL1        0.1500
     32 C         143.3593  139.1031  155.9356 C.2     1  UNL1        0.1384
     33 N         144.7933  138.7215  155.7167 N.2     1  UNL1       -0.1480
     34 N         144.8500  137.2385  155.4978 N.2     1  UNL1       -0.1565
     35 C         143.4510  136.7038  155.5814 C.2     1  UNL1        0.0637
     36 C         142.5297  137.8562  155.8520 C.3     1  UNL1        0.0844
     37 C         141.1308  137.3215  155.9356 C.3     1  UNL1        0.0122
     38 C         141.1874  135.8387  155.7167 C.3     1  UNL1        0.0068
     39 C         142.6214  135.4569  155.4978 C.3     1  UNL1        0.0436
@<TRIPOS>BOND
     1     1     2    1
     2     2     3    1
     3     2     4    1
     4     4     5    1
     5     5    28    1
     6    28    29   am
     7    29    30    2
     8    29    32    1
     9    32    33    2
    10    33    34    1
    11    34    35    2
    12    35    36    1
    13    36    37    1
    14    37    38    1
    15    38    39    1
    16     5     6    1
    17     6     7   ar
    18     7     8   ar
    19     8    21    1
    20    21    22   ar
    21    22    23   ar
    22    23    24   ar
    23    24    25    1
    24    24    26   ar
    25    26    27   ar
    26     8     9   ar
    27     9    13    1
    28    13    14   ar
    29    14    15   ar
    30    15    16   ar
    31    16    17    1
    32    16    18   ar
    33    18    19   ar
    34    19    20    1
    35     9    10   ar
    36    10    11   ar
    37    11    12    1
    38    12     2    1
    39    36    32    1
    40    11     6   ar
    41    39    35    1
    42    27    21   ar
    43    19    13   ar
    44    28    31    1
@<TRIPOS>MOLECULE
*****
 39 44 0 0 0
SMALL
GASTEIGER

@<TRIPOS>ATOM
      1 C         147.0943  143.0561  154.5965 C.3     1  UNL1        0.0437
      2 C         146.4110  141.7566  154.9037 C.3     1  UNL1        0.1368
      3 C         147.1122  141.3874  153.6301 C.3     1  UNL1        0.0437
      4 C         145.9712  140.3290  154.7687 C.3     1  UNL1        0.0643
      5 C         145.0675  139.7217  155.8005 C.3     1  UNL1        0.1024
      6 C         144.6036  140.5422  156.9674 C.ar    1  UNL1        0.0488
      7 C         143.7000  139.9350  157.9992 C.ar    1  UNL1        0.0034
      8 C         143.2361  140.7554  159.1661 C.ar    1  UNL1        0.0177
      9 C         143.6759  142.1832  159.3012 C.ar    1  UNL1        0.0851
     10 N         144.5796  142.7904  158.2694 N.ar    1  UNL1       -0.2119
     11 C         145.0435  141.9699  157.1024 C.ar    1  UNL1        0.2219
     12 O         145.9471  142.5771  156.0706 O.3     1  UNL1       -0.4676
     13 C         143.2121  143.0036  160.4681 C.ar    1  UNL1        0.0284
     14 C         141.9695  143.8359  160.3531 C.ar    1  UNL1        0.0032
     15 C         141.5056  144.6564  161.5200 C.ar    1  UNL1        0.0115
     16 C         142.2844  144.6446  162.8019 C.ar    1  UNL1        0.0585
     17 CL        141.8205  145.4650  163.9688 Cl      1  UNL1       -0.0822
     18 C         143.5270  143.8123  162.9170 C.ar    1  UNL1        0.0228
     19 C         143.9909  142.9919  161.7501 C.ar    1  UNL1        0.0599
     20 CL        145.2335  142.1596  161.8651 Cl      1  UNL1       -0.0822
     21 C         142.3325  140.1482  160.1980 C.ar    1  UNL1        0.0015
     22 C         140.8471  140.3303  160.0945 C.ar    1  UNL1        0.0009
     23 C         139.9434  139.7231  161.1264 C.ar    1  UNL1        0.0114
     24 C         140.5251  138.9338  162.2616 C.ar    1  UNL1        0.0577
     25 CL        139.6215  138.3266  163.2935 Cl      1  UNL1       -0.0822
     26 C         142.0104  138.7517  162.3650 C.ar    1  UNL1        0.0114
     27 C         142.9141  139.3590  161.3332 C.ar    1  UNL1        0.0009
     28 N         144.6277  138.2940  155.6654 N.am    1  UNL1       -0.2974
     29 C         143.3424  137.9683  154.9641 C.2     1  UNL1        0.2618
     30 O         142.4969  139.0703  154.3978 O.2     1  UNL1       -0.2688
     31 H         145.1826  137.5707  156.0371 H       1  UNL1        0.1500
     32 C         142.9026  136.5405  154.8290 C.2     1  UNL1        0.1384
     33 N         142.2148  135.9387  153.6396 N.2     1  UNL1       -0.1480
     34 N         141.9605  134.4902  153.9351 N.2     1  UNL1       -0.1565
     35 C         142.4911  134.1969  155.3071 C.2     1  UNL1        0.0637
     36 C         143.0734  135.4641  155.8595 C.3     1  UNL1        0.0844
     37 C         143.6041  135.1708  157.2315 C.3     1  UNL1        0.0122
     38 C         143.3498  133.7223  157.5270 C.3     1  UNL1        0.0068
     39 C         142.6620  133.1204  156.3376 C.3     1  UNL1        0.0436
@<TRIPOS>BOND
     1     1     2    1
     2     2     3    1
     3     2     4    1
     4     4     5    1
     5     5    28    1
     6    28    29   am
     7    29    30    2
     8    29    32    1
     9    32    33    2
    10    33    34    1
    11    34    35    2
    12    35    36    1
    13    36    37    1
    14    37    38    1
    15    38    39    1
    16     5     6    1
    17     6     7   ar
    18     7     8   ar
    19     8    21    1
    20    21    22   ar
    21    22    23   ar
    22    23    24   ar
    23    24    25    1
    24    24    26   ar
    25    26    27   ar
    26     8     9   ar
    27     9    13    1
    28    13    14   ar
    29    14    15   ar
    30    15    16   ar
    31    16    17    1
    32    16    18   ar
    33    18    19   ar
    34    19    20    1
    35     9    10   ar
    36    10    11   ar
    37    11    12    1
    38    12     2    1
    39    36    32    1
    40    11     6   ar
    41    39    35    1
    42    27    21   ar
    43    19    13   ar
    44    28    31    1
