@<TRIPOS>MOLECULE
*****
 34 37 0 0 0
SMALL
GASTEIGER

@<TRIPOS>ATOM
      1 N         141.7630  140.3125  167.6684 N.3     1  UNL1       -0.2653
      2 C         142.1857  139.4077  166.5492 C.3     1  UNL1        0.1036
      3 C         143.0372  139.9403  165.4351 C.3     1  UNL1        0.1470
      4 C         143.8887  140.4729  164.3210 C.3     1  UNL1        0.1035
      5 N         144.3176  141.9103  164.3261 N.3     1  UNL1       -0.2673
      6 C         143.8948  142.8151  165.4454 C.3     1  UNL1        0.1035
      7 C         143.0433  142.2825  166.5594 C.3     1  UNL1        0.1470
      8 C         142.1918  141.7499  167.6735 C.3     1  UNL1        0.1036
      9 O         143.4660  141.3777  165.4402 O.3     1  UNL1       -0.3530
     10 C         140.9115  139.7799  168.7826 C.3     1  UNL1        0.1202
     11 C         139.4489  140.1090  168.8318 C.3     1  UNL1        0.2226
     12 O         138.4674  139.2817  168.0555 O.3     1  UNL1       -0.4740
     13 C         138.7966  139.0152  163.5755 C.ar    1  UNL1        0.0686
     14 C         138.7431  137.7628  164.3995 C.ar    1  UNL1        0.0134
     15 C         138.6334  137.8517  165.8928 C.ar    1  UNL1        0.0376
     16 C         138.5772  139.1929  166.5622 C.ar    1  UNL1        0.1387
     17 C         138.6307  140.4452  165.7384 C.ar    1  UNL1        0.0376
     18 C         138.7404  140.3563  164.2450 C.ar    1  UNL1        0.0134
     19 N         139.0160  138.8375  160.5889 N.1     1  UNL1       -0.1908
     20 C         138.9063  138.9263  162.0822 C.1     1  UNL1        0.1004
     21 C         145.1690  142.4428  163.2120 C.3     1  UNL1        0.0913
     22 C         144.5267  143.0846  162.0180 C.3     1  UNL1        0.1087
     23 N         143.7194  144.3379  162.1836 N.3     1  UNL1       -0.1780
     24 H         143.7815  144.8468  161.3019 H       1  UNL1        0.1488
     25 S         142.2631  144.2514  162.5320 S.O2    1  UNL1        0.0603
     26 O         142.4298  145.3774  163.5088 O.2     1  UNL1       -0.1530
     27 O         142.0963  143.1253  161.5553 O.2     1  UNL1       -0.1530
     28 C         140.8066  144.1648  162.8804 C.ar    1  UNL1        0.1228
     29 C         139.8394  143.5493  161.9131 C.ar    1  UNL1        0.0200
     30 C         138.3830  143.4627  162.2615 C.ar    1  UNL1        0.0022
     31 C         137.8938  143.9917  163.5771 C.ar    1  UNL1        0.0115
     32 C         138.8610  144.6072  164.5444 C.ar    1  UNL1        0.0590
     33 CL        138.3718  145.1362  165.8600 Cl      1  UNL1       -0.0822
     34 C         140.3174  144.6938  164.1960 C.ar    1  UNL1        0.0313
@<TRIPOS>BOND
     1    19    20    3
     2    20    13    1
     3    13    14   ar
     4    14    15   ar
     5    15    16   ar
     6    16    12    1
     7    12    11    1
     8    11    10    1
     9    10     1    1
    10     1     2    1
    11     2     3    1
    12     3     4    1
    13     4     5    1
    14     5    21    1
    15    21    22    1
    16    22    23    1
    17    23    25    1
    18    25    26    2
    19    25    27    2
    20    25    28    1
    21    28    29   ar
    22    29    30   ar
    23    30    31   ar
    24    31    32   ar
    25    32    33    1
    26    32    34   ar
    27     5     6    1
    28     6     7    1
    29     7     8    1
    30     7     9    1
    31    16    17   ar
    32    17    18   ar
    33    18    13   ar
    34     8     1    1
    35     9     3    1
    36    34    28   ar
    37    23    24    1
@<TRIPOS>MOLECULE
*****
 34 37 0 0 0
SMALL
GASTEIGER

@<TRIPOS>ATOM
      1 N         142.1697  141.7782  167.2052 N.3     1  UNL1       -0.2653
      2 C         142.8265  142.1345  165.9046 C.3     1  UNL1        0.1036
      3 C         142.0830  142.9479  164.8871 C.3     1  UNL1        0.1470
      4 C         141.3396  143.7614  163.8694 C.3     1  UNL1        0.1035
      5 N         139.9393  144.2187  164.1525 N.3     1  UNL1       -0.2673
      6 C         139.2825  143.8624  165.4532 C.3     1  UNL1        0.1035
      7 C         140.0259  143.0489  166.4707 C.3     1  UNL1        0.1470
      8 C         140.7694  142.2355  167.4883 C.3     1  UNL1        0.1036
      9 O         140.6828  143.4052  165.1701 O.3     1  UNL1       -0.3530
     10 C         142.9132  140.9647  168.2229 C.3     1  UNL1        0.1202
     11 C         142.6037  139.5064  168.3887 C.3     1  UNL1        0.2226
     12 O         143.3816  138.4821  167.6168 O.3     1  UNL1       -0.4740
     13 C         143.7410  138.8303  163.1447 C.ar    1  UNL1        0.0686
     14 C         144.8980  139.2075  164.0218 C.ar    1  UNL1        0.0134
     15 C         144.7782  139.0914  165.5124 C.ar    1  UNL1        0.0376
     16 C         143.5014  138.5982  166.1261 C.ar    1  UNL1        0.1387
     17 C         142.3445  138.2209  165.2491 C.ar    1  UNL1        0.0376
     18 C         142.4643  138.3370  163.7583 C.ar    1  UNL1        0.0134
     19 N         143.9807  139.0624  160.1634 N.1     1  UNL1       -0.1908
     20 C         143.8609  138.9463  161.6540 C.1     1  UNL1        0.1004
     21 C         139.1958  145.0321  163.1349 C.3     1  UNL1        0.0913
     22 C         137.9015  144.5260  162.5703 C.3     1  UNL1        0.1087
     23 N         137.8885  143.2990  161.7076 N.3     1  UNL1       -0.1780
     24 H         138.6131  143.4278  161.0014 H       1  UNL1        0.1488
     25 S         138.1162  141.9489  162.3203 S.O2    1  UNL1        0.0603
     26 O         136.8957  142.1302  163.1732 O.2     1  UNL1       -0.1530
     27 O         139.3367  141.7677  161.4674 O.2     1  UNL1       -0.1530
     28 C         138.3439  140.5988  162.9331 C.ar    1  UNL1        0.1228
     29 C         138.6841  139.4270  162.0606 C.ar    1  UNL1        0.0200
     30 C         138.9118  138.0769  162.6733 C.ar    1  UNL1        0.0022
     31 C         138.7994  137.8987  164.1584 C.ar    1  UNL1        0.0115
     32 C         138.4592  139.0705  165.0308 C.ar    1  UNL1        0.0590
     33 CL        138.3468  138.8922  166.5160 Cl      1  UNL1       -0.0822
     34 C         138.2315  140.4206  164.4182 C.ar    1  UNL1        0.0313
@<TRIPOS>BOND
     1    19    20    3
     2    20    13    1
     3    13    14   ar
     4    14    15   ar
     5    15    16   ar
     6    16    12    1
     7    12    11    1
     8    11    10    1
     9    10     1    1
    10     1     2    1
    11     2     3    1
    12     3     4    1
    13     4     5    1
    14     5    21    1
    15    21    22    1
    16    22    23    1
    17    23    25    1
    18    25    26    2
    19    25    27    2
    20    25    28    1
    21    28    29   ar
    22    29    30   ar
    23    30    31   ar
    24    31    32   ar
    25    32    33    1
    26    32    34   ar
    27     5     6    1
    28     6     7    1
    29     7     8    1
    30     7     9    1
    31    16    17   ar
    32    17    18   ar
    33    18    13   ar
    34     8     1    1
    35     9     3    1
    36    34    28   ar
    37    23    24    1
@<TRIPOS>MOLECULE
*****
 34 37 0 0 0
SMALL
GASTEIGER

@<TRIPOS>ATOM
      1 N         144.2773  141.6994  163.6244 N.3     1  UNL1       -0.2653
      2 C         143.4824  141.4288  162.3815 C.3     1  UNL1        0.1036
      3 C         142.3155  142.3042  162.0322 C.3     1  UNL1        0.1470
      4 C         141.1486  143.1795  161.6828 C.3     1  UNL1        0.1035
      5 N         140.7766  144.3254  162.5764 N.3     1  UNL1       -0.2673
      6 C         141.5715  144.5960  163.8194 C.3     1  UNL1        0.1035
      7 C         142.7384  143.7206  164.1687 C.3     1  UNL1        0.1470
      8 C         143.9053  142.8453  164.5180 C.3     1  UNL1        0.1036
      9 O         141.9435  143.4501  162.9258 O.3     1  UNL1       -0.3530
     10 C         145.4443  140.8240  163.9738 C.3     1  UNL1        0.1202
     11 C         145.2124  139.4275  164.4696 C.3     1  UNL1        0.2226
     12 O         143.8132  138.9092  164.6242 O.3     1  UNL1       -0.4740
     13 C         141.3737  140.0571  168.2270 C.ar    1  UNL1        0.0686
     14 C         141.0169  140.6010  166.8753 C.ar    1  UNL1        0.0134
     15 C         141.8300  140.2183  165.6744 C.ar    1  UNL1        0.0376
     16 C         143.0001  139.2918  165.8251 C.ar    1  UNL1        0.1387
     17 C         143.3569  138.7480  167.1767 C.ar    1  UNL1        0.0376
     18 C         142.5437  139.1307  168.3777 C.ar    1  UNL1        0.0134
     19 N         139.7473  140.8225  170.6289 N.1     1  UNL1       -0.1908
     20 C         140.5605  140.4398  169.4280 C.1     1  UNL1        0.1004
     21 C         139.6097  145.2008  162.2271 C.3     1  UNL1        0.0913
     22 C         138.2830  144.9830  162.8925 C.3     1  UNL1        0.1087
     23 N         137.4324  143.8103  162.5036 N.3     1  UNL1       -0.1780
     24 H         137.4177  143.7825  161.4840 H       1  UNL1        0.1488
     25 S         137.7974  142.4320  162.9691 S.O2    1  UNL1        0.0603
     26 O         137.8790  142.9306  164.3814 O.2     1  UNL1       -0.1530
     27 O         137.7157  141.9333  161.5568 O.2     1  UNL1       -0.1530
     28 C         138.1624  141.0535  163.4347 C.ar    1  UNL1        0.1228
     29 C         138.8356  140.0981  162.4944 C.ar    1  UNL1        0.0200
     30 C         139.2006  138.7197  162.9599 C.ar    1  UNL1        0.0022
     31 C         138.8923  138.2966  164.3656 C.ar    1  UNL1        0.0115
     32 C         138.2191  139.2520  165.3058 C.ar    1  UNL1        0.0590
     33 CL        137.9109  138.8289  166.7116 Cl      1  UNL1       -0.0822
     34 C         137.8541  140.6304  164.8403 C.ar    1  UNL1        0.0313
@<TRIPOS>BOND
     1    19    20    3
     2    20    13    1
     3    13    14   ar
     4    14    15   ar
     5    15    16   ar
     6    16    12    1
     7    12    11    1
     8    11    10    1
     9    10     1    1
    10     1     2    1
    11     2     3    1
    12     3     4    1
    13     4     5    1
    14     5    21    1
    15    21    22    1
    16    22    23    1
    17    23    25    1
    18    25    26    2
    19    25    27    2
    20    25    28    1
    21    28    29   ar
    22    29    30   ar
    23    30    31   ar
    24    31    32   ar
    25    32    33    1
    26    32    34   ar
    27     5     6    1
    28     6     7    1
    29     7     8    1
    30     7     9    1
    31    16    17   ar
    32    17    18   ar
    33    18    13   ar
    34     8     1    1
    35     9     3    1
    36    34    28   ar
    37    23    24    1
@<TRIPOS>MOLECULE
*****
 34 37 0 0 0
SMALL
GASTEIGER

@<TRIPOS>ATOM
      1 N         143.4194  140.3772  160.6555 N.3     1  UNL1       -0.2653
      2 C         142.3201  140.5420  159.6483 C.3     1  UNL1        0.1036
      3 C         141.5928  141.8493  159.5391 C.3     1  UNL1        0.1470
      4 C         140.8654  143.1566  159.4297 C.3     1  UNL1        0.1035
      5 N         141.2374  144.2992  160.3276 N.3     1  UNL1       -0.2673
      6 C         142.3368  144.1344  161.3348 C.3     1  UNL1        0.1035
      7 C         143.0641  142.8271  161.4441 C.3     1  UNL1        0.1470
      8 C         143.7914  141.5198  161.5534 C.3     1  UNL1        0.1036
      9 O         141.9648  142.9918  160.4369 O.3     1  UNL1       -0.3530
     10 C         144.1467  139.0699  160.7648 C.3     1  UNL1        0.1202
     11 C         143.5024  137.9093  161.4632 C.3     1  UNL1        0.2226
     12 O         142.0477  137.6160  161.2446 O.3     1  UNL1       -0.4740
     13 C         139.2054  137.6053  164.7333 C.ar    1  UNL1        0.0686
     14 C         140.6716  137.3837  164.9597 C.ar    1  UNL1        0.0134
     15 C         141.6190  137.3872  163.7968 C.ar    1  UNL1        0.0376
     16 C         141.1003  137.6124  162.4075 C.ar    1  UNL1        0.1387
     17 C         139.6342  137.8340  162.1810 C.ar    1  UNL1        0.0376
     18 C         138.6867  137.8305  163.3440 C.ar    1  UNL1        0.0134
     19 N         137.3106  137.5982  167.0591 N.1     1  UNL1       -0.1908
     20 C         138.2580  137.6017  165.8962 C.1     1  UNL1        0.1004
     21 C         140.5101  145.6065  160.2183 C.3     1  UNL1        0.0913
     22 C         139.8415  146.1959  161.4248 C.3     1  UNL1        0.1087
     23 N         138.6360  145.5271  162.0159 N.3     1  UNL1       -0.1780
     24 H         138.1057  145.1348  161.2379 H       1  UNL1        0.1488
     25 S         138.8061  144.4277  163.0220 S.O2    1  UNL1        0.0603
     26 O         139.8242  145.2529  163.7517 O.2     1  UNL1       -0.1530
     27 O         137.7880  143.6025  162.2924 O.2     1  UNL1       -0.1530
     28 C         138.9762  143.3282  164.0281 C.ar    1  UNL1        0.1228
     29 C         138.0907  142.1186  163.9742 C.ar    1  UNL1        0.0200
     30 C         138.2607  141.0191  164.9802 C.ar    1  UNL1        0.0022
     31 C         139.3163  141.1292  166.0402 C.ar    1  UNL1        0.0115
     32 C         140.2018  142.3387  166.0942 C.ar    1  UNL1        0.0590
     33 CL        141.2574  142.4487  167.1542 Cl      1  UNL1       -0.0822
     34 C         140.0318  143.4382  165.0881 C.ar    1  UNL1        0.0313
@<TRIPOS>BOND
     1    19    20    3
     2    20    13    1
     3    13    14   ar
     4    14    15   ar
     5    15    16   ar
     6    16    12    1
     7    12    11    1
     8    11    10    1
     9    10     1    1
    10     1     2    1
    11     2     3    1
    12     3     4    1
    13     4     5    1
    14     5    21    1
    15    21    22    1
    16    22    23    1
    17    23    25    1
    18    25    26    2
    19    25    27    2
    20    25    28    1
    21    28    29   ar
    22    29    30   ar
    23    30    31   ar
    24    31    32   ar
    25    32    33    1
    26    32    34   ar
    27     5     6    1
    28     6     7    1
    29     7     8    1
    30     7     9    1
    31    16    17   ar
    32    17    18   ar
    33    18    13   ar
    34     8     1    1
    35     9     3    1
    36    34    28   ar
    37    23    24    1
@<TRIPOS>MOLECULE
*****
 34 37 0 0 0
SMALL
GASTEIGER

@<TRIPOS>ATOM
      1 N         142.6382  138.3070  164.7690 N.3     1  UNL1       -0.2653
      2 C         141.4460  137.4082  164.6247 C.3     1  UNL1        0.1036
      3 C         140.4653  137.6360  163.5129 C.3     1  UNL1        0.1470
      4 C         139.4845  137.8638  162.4010 C.3     1  UNL1        0.1035
      5 N         139.6959  138.9904  161.4335 N.3     1  UNL1       -0.2673
      6 C         140.8881  139.8892  161.5779 C.3     1  UNL1        0.1035
      7 C         141.8689  139.6614  162.6897 C.3     1  UNL1        0.1470
      8 C         142.8496  139.4336  163.8015 C.3     1  UNL1        0.1036
      9 O         140.6767  138.7626  162.5454 O.3     1  UNL1       -0.3530
     10 C         143.6190  138.0792  165.8809 C.3     1  UNL1        0.1202
     11 C         143.7422  139.0821  166.9895 C.3     1  UNL1        0.2226
     12 O         142.7694  139.0615  168.1312 O.3     1  UNL1       -0.4740
     13 C         140.9240  142.8997  169.5845 C.ar    1  UNL1        0.0686
     14 C         140.0475  141.7786  169.1102 C.ar    1  UNL1        0.0134
     15 C         140.6626  140.4992  168.6257 C.ar    1  UNL1        0.0376
     16 C         142.1542  140.3409  168.6156 C.ar    1  UNL1        0.1387
     17 C         143.0307  141.4619  169.0899 C.ar    1  UNL1        0.0376
     18 C         142.4156  142.7414  169.5743 C.ar    1  UNL1        0.0134
     19 N         139.6937  145.4585  170.5533 N.1     1  UNL1       -0.1908
     20 C         140.3088  144.1791  170.0689 C.1     1  UNL1        0.1004
     21 C         138.7152  139.2182  160.3216 C.3     1  UNL1        0.0913
     22 C         137.7575  140.3707  160.3906 C.3     1  UNL1        0.1087
     23 N         137.0328  140.6681  161.6698 N.3     1  UNL1       -0.1780
     24 H         136.8611  139.7721  162.1261 H       1  UNL1        0.1488
     25 S         137.6603  141.5637  162.6965 S.O2    1  UNL1        0.0603
     26 O         137.6658  140.4317  163.6806 O.2     1  UNL1       -0.1530
     27 O         137.6548  142.6957  161.7123 O.2     1  UNL1       -0.1530
     28 C         138.2878  142.4594  163.7231 C.ar    1  UNL1        0.1228
     29 C         137.5769  143.7028  164.1686 C.ar    1  UNL1        0.0200
     30 C         138.2044  144.5985  165.1953 C.ar    1  UNL1        0.0022
     31 C         139.5428  144.2508  165.7764 C.ar    1  UNL1        0.0115
     32 C         140.2537  143.0074  165.3309 C.ar    1  UNL1        0.0590
     33 CL        141.5922  142.6597  165.9120 Cl      1  UNL1       -0.0822
     34 C         139.6262  142.1117  164.3043 C.ar    1  UNL1        0.0313
@<TRIPOS>BOND
     1    19    20    3
     2    20    13    1
     3    13    14   ar
     4    14    15   ar
     5    15    16   ar
     6    16    12    1
     7    12    11    1
     8    11    10    1
     9    10     1    1
    10     1     2    1
    11     2     3    1
    12     3     4    1
    13     4     5    1
    14     5    21    1
    15    21    22    1
    16    22    23    1
    17    23    25    1
    18    25    26    2
    19    25    27    2
    20    25    28    1
    21    28    29   ar
    22    29    30   ar
    23    30    31   ar
    24    31    32   ar
    25    32    33    1
    26    32    34   ar
    27     5     6    1
    28     6     7    1
    29     7     8    1
    30     7     9    1
    31    16    17   ar
    32    17    18   ar
    33    18    13   ar
    34     8     1    1
    35     9     3    1
    36    34    28   ar
    37    23    24    1
@<TRIPOS>MOLECULE
*****
 34 37 0 0 0
SMALL
GASTEIGER

@<TRIPOS>ATOM
      1 N         141.1177  138.1361  164.2110 N.3     1  UNL1       -0.2653
      2 C         140.9841  138.6273  162.8001 C.3     1  UNL1        0.1036
      3 C         141.9866  139.5950  162.2447 C.3     1  UNL1        0.1470
      4 C         142.9892  140.5627  161.6893 C.3     1  UNL1        0.1035
      5 N         144.1255  141.0391  162.5449 N.3     1  UNL1       -0.2673
      6 C         144.2591  140.5478  163.9559 C.3     1  UNL1        0.1035
      7 C         143.2565  139.5801  164.5112 C.3     1  UNL1        0.1470
      8 C         142.2539  138.6125  165.0666 C.3     1  UNL1        0.1036
      9 O         143.1229  140.0714  163.1003 O.3     1  UNL1       -0.3530
     10 C         140.1151  137.1684  164.7664 C.3     1  UNL1        0.1202
     11 C         138.8158  137.6710  165.3224 C.3     1  UNL1        0.2226
     12 O         138.5114  139.1398  165.3065 O.3     1  UNL1       -0.4740
     13 C         140.3766  141.8576  168.3698 C.ar    1  UNL1        0.0686
     14 C         139.6845  140.6000  168.8052 C.ar    1  UNL1        0.0134
     15 C         139.0628  139.6941  167.7841 C.ar    1  UNL1        0.0376
     16 C         139.1331  140.0457  166.3276 C.ar    1  UNL1        0.1387
     17 C         139.8252  141.3032  165.8922 C.ar    1  UNL1        0.0376
     18 C         140.4469  142.2092  166.9133 C.ar    1  UNL1        0.0134
     19 N         141.6201  143.6694  170.4120 N.1     1  UNL1       -0.1908
     20 C         140.9984  142.7635  169.3909 C.1     1  UNL1        0.1004
     21 C         145.1281  142.0067  161.9895 C.3     1  UNL1        0.0913
     22 C         144.7290  143.4270  161.7180 C.3     1  UNL1        0.1087
     23 N         144.0783  144.2424  162.7958 N.3     1  UNL1       -0.1780
     24 H         144.3564  145.2113  162.6404 H       1  UNL1        0.1488
     25 S         142.5854  144.2383  162.9412 S.O2    1  UNL1        0.0603
     26 O         142.4422  144.5468  161.4803 O.2     1  UNL1       -0.1530
     27 O         142.7285  143.9298  164.4021 O.2     1  UNL1       -0.1530
     28 C         141.0924  144.2343  163.0867 C.ar    1  UNL1        0.1228
     29 C         140.2294  143.7717  161.9504 C.ar    1  UNL1        0.0200
     30 C         138.7365  143.7677  162.0958 C.ar    1  UNL1        0.0022
     31 C         138.1066  144.2261  163.3776 C.ar    1  UNL1        0.0115
     32 C         138.9696  144.6886  164.5139 C.ar    1  UNL1        0.0590
     33 CL        138.3397  145.1471  165.7958 Cl      1  UNL1       -0.0822
     34 C         140.4625  144.6927  164.3685 C.ar    1  UNL1        0.0313
@<TRIPOS>BOND
     1    19    20    3
     2    20    13    1
     3    13    14   ar
     4    14    15   ar
     5    15    16   ar
     6    16    12    1
     7    12    11    1
     8    11    10    1
     9    10     1    1
    10     1     2    1
    11     2     3    1
    12     3     4    1
    13     4     5    1
    14     5    21    1
    15    21    22    1
    16    22    23    1
    17    23    25    1
    18    25    26    2
    19    25    27    2
    20    25    28    1
    21    28    29   ar
    22    29    30   ar
    23    30    31   ar
    24    31    32   ar
    25    32    33    1
    26    32    34   ar
    27     5     6    1
    28     6     7    1
    29     7     8    1
    30     7     9    1
    31    16    17   ar
    32    17    18   ar
    33    18    13   ar
    34     8     1    1
    35     9     3    1
    36    34    28   ar
    37    23    24    1
@<TRIPOS>MOLECULE
*****
 34 37 0 0 0
SMALL
GASTEIGER

@<TRIPOS>ATOM
      1 N         144.4387  139.7688  163.7732 N.3     1  UNL1       -0.2653
      2 C         143.6686  139.2188  162.6095 C.3     1  UNL1        0.1036
      3 C         143.3849  140.0874  161.4200 C.3     1  UNL1        0.1470
      4 C         143.1012  140.9560  160.2303 C.3     1  UNL1        0.1035
      5 N         143.5877  142.3747  160.2045 N.3     1  UNL1       -0.2673
      6 C         144.3579  142.9247  161.3683 C.3     1  UNL1        0.1035
      7 C         144.6416  142.0561  162.5578 C.3     1  UNL1        0.1470
      8 C         144.9252  141.1875  163.7473 C.3     1  UNL1        0.1036
      9 O         143.8714  141.5060  161.3941 O.3     1  UNL1       -0.3530
     10 C         144.7224  138.9002  164.9628 C.3     1  UNL1        0.1202
     11 C         143.5950  138.4263  165.8313 C.3     1  UNL1        0.2226
     12 O         142.2309  139.0333  165.6872 O.3     1  UNL1       -0.4740
     13 C         140.9395  142.3461  168.4454 C.ar    1  UNL1        0.0686
     14 C         140.0516  141.1552  168.2363 C.ar    1  UNL1        0.0134
     15 C         140.4821  140.0510  167.3169 C.ar    1  UNL1        0.0376
     16 C         141.8004  140.1375  166.6066 C.ar    1  UNL1        0.1387
     17 C         142.6883  141.3283  166.8157 C.ar    1  UNL1        0.0376
     18 C         142.2579  142.4326  167.7351 C.ar    1  UNL1        0.0134
     19 N         140.0786  144.5545  170.2843 N.1     1  UNL1       -0.1908
     20 C         140.5091  143.4503  169.3648 C.1     1  UNL1        0.1004
     21 C         143.3041  143.2432  159.0150 C.3     1  UNL1        0.0913
     22 C         142.1234  144.1685  159.0263 C.3     1  UNL1        0.1087
     23 N         141.8467  145.0165  160.2322 N.3     1  UNL1       -0.1780
     24 H         141.5875  145.9413  159.8887 H       1  UNL1        0.1488
     25 S         140.7869  144.6055  161.2109 S.O2    1  UNL1        0.0603
     26 O         139.8909  144.2102  160.0747 O.2     1  UNL1       -0.1530
     27 O         141.6828  145.0008  162.3471 O.2     1  UNL1       -0.1530
     28 C         139.7270  144.1944  162.1896 C.ar    1  UNL1        0.1228
     29 C         138.7519  143.1131  161.8291 C.ar    1  UNL1        0.0200
     30 C         137.6922  142.7021  162.8078 C.ar    1  UNL1        0.0022
     31 C         137.6074  143.3724  164.1470 C.ar    1  UNL1        0.0115
     32 C         138.5825  144.4537  164.5075 C.ar    1  UNL1        0.0590
     33 CL        138.4978  145.1239  165.8468 Cl      1  UNL1       -0.0822
     34 C         139.6423  144.8647  163.5288 C.ar    1  UNL1        0.0313
@<TRIPOS>BOND
     1    19    20    3
     2    20    13    1
     3    13    14   ar
     4    14    15   ar
     5    15    16   ar
     6    16    12    1
     7    12    11    1
     8    11    10    1
     9    10     1    1
    10     1     2    1
    11     2     3    1
    12     3     4    1
    13     4     5    1
    14     5    21    1
    15    21    22    1
    16    22    23    1
    17    23    25    1
    18    25    26    2
    19    25    27    2
    20    25    28    1
    21    28    29   ar
    22    29    30   ar
    23    30    31   ar
    24    31    32   ar
    25    32    33    1
    26    32    34   ar
    27     5     6    1
    28     6     7    1
    29     7     8    1
    30     7     9    1
    31    16    17   ar
    32    17    18   ar
    33    18    13   ar
    34     8     1    1
    35     9     3    1
    36    34    28   ar
    37    23    24    1
@<TRIPOS>MOLECULE
*****
 34 37 0 0 0
SMALL
GASTEIGER

@<TRIPOS>ATOM
      1 N         138.9889  139.1264  162.1608 N.3     1  UNL1       -0.2653
      2 C         137.9831  140.2386  162.1943 C.3     1  UNL1        0.1036
      3 C         138.2219  141.4898  161.4022 C.3     1  UNL1        0.1470
      4 C         138.4607  142.7411  160.6101 C.3     1  UNL1        0.1035
      5 N         139.7054  142.8800  159.7845 N.3     1  UNL1       -0.2673
      6 C         140.7112  141.7677  159.7511 C.3     1  UNL1        0.1035
      7 C         140.4724  140.5165  160.5432 C.3     1  UNL1        0.1470
      8 C         140.2336  139.2653  161.3353 C.3     1  UNL1        0.1036
      9 O         139.4666  141.6288  160.5767 O.3     1  UNL1       -0.3530
     10 C         138.7501  137.8751  162.9529 C.3     1  UNL1        0.1202
     11 C         139.3344  137.7345  164.3272 C.3     1  UNL1        0.2226
     12 O         140.4751  138.6118  164.7506 O.3     1  UNL1       -0.4740
     13 C         140.6336  140.2275  168.9476 C.ar    1  UNL1        0.0686
     14 C         139.3104  140.0324  168.2684 C.ar    1  UNL1        0.0134
     15 C         139.2576  139.4939  166.8694 C.ar    1  UNL1        0.0376
     16 C         140.5279  139.1503  166.1496 C.ar    1  UNL1        0.1387
     17 C         141.8511  139.3454  166.8287 C.ar    1  UNL1        0.0376
     18 C         141.9039  139.8839  168.2277 C.ar    1  UNL1        0.0134
     19 N         140.7392  141.3045  171.7455 N.1     1  UNL1       -0.1908
     20 C         140.6864  140.7660  170.3465 C.1     1  UNL1        0.1004
     21 C         139.9442  144.1312  158.9925 C.3     1  UNL1        0.0913
     22 C         140.3643  145.3914  159.6894 C.3     1  UNL1        0.1087
     23 N         141.5233  145.3713  160.6414 N.3     1  UNL1       -0.1780
     24 H         141.7951  146.3423  160.7950 H       1  UNL1        0.1488
     25 S         141.3705  144.7450  161.9958 S.O2    1  UNL1        0.0603
     26 O         140.1245  145.5476  162.2263 O.2     1  UNL1       -0.1530
     27 O         142.6165  143.9424  161.7652 O.2     1  UNL1       -0.1530
     28 C         141.2178  144.1186  163.3502 C.ar    1  UNL1        0.1228
     29 C         139.8563  143.9851  163.9655 C.ar    1  UNL1        0.0200
     30 C         139.7035  143.3588  165.3199 C.ar    1  UNL1        0.0022
     31 C         140.9122  142.8660  166.0589 C.ar    1  UNL1        0.0115
     32 C         142.2736  142.9995  165.4436 C.ar    1  UNL1        0.0590
     33 CL        143.4823  142.5066  166.1827 Cl      1  UNL1       -0.0822
     34 C         142.4264  143.6258  164.0892 C.ar    1  UNL1        0.0313
@<TRIPOS>BOND
     1    19    20    3
     2    20    13    1
     3    13    14   ar
     4    14    15   ar
     5    15    16   ar
     6    16    12    1
     7    12    11    1
     8    11    10    1
     9    10     1    1
    10     1     2    1
    11     2     3    1
    12     3     4    1
    13     4     5    1
    14     5    21    1
    15    21    22    1
    16    22    23    1
    17    23    25    1
    18    25    26    2
    19    25    27    2
    20    25    28    1
    21    28    29   ar
    22    29    30   ar
    23    30    31   ar
    24    31    32   ar
    25    32    33    1
    26    32    34   ar
    27     5     6    1
    28     6     7    1
    29     7     8    1
    30     7     9    1
    31    16    17   ar
    32    17    18   ar
    33    18    13   ar
    34     8     1    1
    35     9     3    1
    36    34    28   ar
    37    23    24    1
@<TRIPOS>MOLECULE
*****
 34 37 0 0 0
SMALL
GASTEIGER

@<TRIPOS>ATOM
      1 N         139.4762  137.6045  164.2849 N.3     1  UNL1       -0.2653
      2 C         138.8660  138.0456  162.9876 C.3     1  UNL1        0.1036
      3 C         139.7411  138.3065  161.7976 C.3     1  UNL1        0.1470
      4 C         140.6161  138.5675  160.6075 C.3     1  UNL1        0.1035
      5 N         142.1014  138.3873  160.7148 N.3     1  UNL1       -0.2673
      6 C         142.7116  137.9462  162.0122 C.3     1  UNL1        0.1035
      7 C         141.8365  137.6853  163.2022 C.3     1  UNL1        0.1470
      8 C         140.9615  137.4244  164.3922 C.3     1  UNL1        0.1036
      9 O         141.2263  138.1264  161.9049 O.3     1  UNL1       -0.3530
     10 C         138.6012  137.3436  165.4750 C.3     1  UNL1        0.1202
     11 C         138.1085  138.4887  166.3092 C.3     1  UNL1        0.2226
     12 O         138.5395  139.8895  165.9895 O.3     1  UNL1       -0.4740
     13 C         141.1493  142.1540  168.8723 C.ar    1  UNL1        0.0686
     14 C         140.7655  142.7744  167.5616 C.ar    1  UNL1        0.0134
     15 C         139.8956  142.0196  166.6007 C.ar    1  UNL1        0.0376
     16 C         139.4094  140.6443  166.9504 C.ar    1  UNL1        0.1387
     17 C         139.7931  140.0239  168.2610 C.ar    1  UNL1        0.0376
     18 C         140.6630  140.7787  169.2220 C.ar    1  UNL1        0.0134
     19 N         142.8891  143.6636  170.7942 N.1     1  UNL1       -0.1908
     20 C         142.0192  142.9088  169.8333 C.1     1  UNL1        0.1004
     21 C         142.9764  138.6482  159.5248 C.3     1  UNL1        0.0913
     22 C         143.8530  139.8650  159.4908 C.3     1  UNL1        0.1087
     23 N         143.3254  141.1832  159.9744 N.3     1  UNL1       -0.1780
     24 H         142.3290  141.1992  159.7570 H       1  UNL1        0.1488
     25 S         143.4593  141.5599  161.4201 S.O2    1  UNL1        0.0603
     26 O         142.0484  142.0689  161.4182 O.2     1  UNL1       -0.1530
     27 O         144.8703  141.0508  161.4220 O.2     1  UNL1       -0.1530
     28 C         143.5933  141.9365  162.8659 C.ar    1  UNL1        0.1228
     29 C         144.0404  143.3178  163.2428 C.ar    1  UNL1        0.0200
     30 C         144.1743  143.6945  164.6885 C.ar    1  UNL1        0.0022
     31 C         143.8612  142.6898  165.7574 C.ar    1  UNL1        0.0115
     32 C         143.4141  141.3084  165.3805 C.ar    1  UNL1        0.0590
     33 CL        143.1010  140.3037  166.4494 Cl      1  UNL1       -0.0822
     34 C         143.2802  140.9318  163.9348 C.ar    1  UNL1        0.0313
@<TRIPOS>BOND
     1    19    20    3
     2    20    13    1
     3    13    14   ar
     4    14    15   ar
     5    15    16   ar
     6    16    12    1
     7    12    11    1
     8    11    10    1
     9    10     1    1
    10     1     2    1
    11     2     3    1
    12     3     4    1
    13     4     5    1
    14     5    21    1
    15    21    22    1
    16    22    23    1
    17    23    25    1
    18    25    26    2
    19    25    27    2
    20    25    28    1
    21    28    29   ar
    22    29    30   ar
    23    30    31   ar
    24    31    32   ar
    25    32    33    1
    26    32    34   ar
    27     5     6    1
    28     6     7    1
    29     7     8    1
    30     7     9    1
    31    16    17   ar
    32    17    18   ar
    33    18    13   ar
    34     8     1    1
    35     9     3    1
    36    34    28   ar
    37    23    24    1
