@<TRIPOS>MOLECULE
*****
 35 38 0 0 0
SMALL
GASTEIGER

@<TRIPOS>ATOM
      1 N         141.6652  144.4095  161.6816 N.3     1  UNL1       -0.2653
      2 C         141.8039  143.1014  160.9607 C.3     1  UNL1        0.1036
      3 C         142.7038  142.0343  161.5097 C.3     1  UNL1        0.1470
      4 C         143.6037  140.9671  162.0587 C.3     1  UNL1        0.1035
      5 N         144.3648  141.2080  163.3286 N.3     1  UNL1       -0.2673
      6 C         144.2261  142.5162  164.0495 C.3     1  UNL1        0.1035
      7 C         143.3262  143.5833  163.5005 C.3     1  UNL1        0.1470
      8 C         142.4263  144.6504  162.9515 C.3     1  UNL1        0.1036
      9 O         143.4649  142.2753  162.7796 O.3     1  UNL1       -0.3530
     10 C         140.7653  145.4767  161.1326 C.3     1  UNL1        0.1202
     11 C         139.7245  146.1052  162.0111 C.3     1  UNL1        0.2226
     12 O         138.4104  145.4152  162.2285 O.3     1  UNL1       -0.4740
     13 C         138.2587  141.5222  164.4806 C.ar    1  UNL1        0.0686
     14 C         138.9495  142.7102  165.0820 C.ar    1  UNL1        0.0134
     15 C         139.0001  144.0078  164.3313 C.ar    1  UNL1        0.0376
     16 C         138.3599  144.1176  162.9792 C.ar    1  UNL1        0.1387
     17 C         137.6691  142.9297  162.3778 C.ar    1  UNL1        0.0376
     18 C         137.6185  141.6320  163.1285 C.ar    1  UNL1        0.0134
     19 N         138.1575  138.9270  165.9819 N.1     1  UNL1       -0.1908
     20 C         138.2081  140.2246  165.2312 C.1     1  UNL1        0.1004
     21 C         145.2647  140.1409  163.8776 C.3     1  UNL1        0.0913
     22 C         144.7126  139.0971  164.8027 C.3     1  UNL1        0.1087
     23 N         143.2293  138.9578  164.9765 N.3     1  UNL1       -0.1780
     24 H         143.0439  137.9686  165.1425 H       1  UNL1        0.1488
     25 S         142.5267  139.7182  166.0619 S.O2    1  UNL1        0.0603
     26 O         141.6491  140.3717  165.0359 O.2     1  UNL1       -0.1530
     27 O         143.4044  139.0646  167.0878 O.2     1  UNL1       -0.1530
     28 C         141.8241  140.4786  167.1474 C.ar    1  UNL1        0.1220
     29 C         140.8041  139.7907  168.0054 C.ar    1  UNL1        0.0206
     30 C         140.1015  140.5510  169.0909 C.ar    1  UNL1        0.0116
     31 C         140.4190  141.9993  169.3182 C.ar    1  UNL1        0.0685
     32 C         141.4390  142.6872  168.4601 C.ar    1  UNL1        0.0116
     33 C         142.1416  141.9269  167.3747 C.ar    1  UNL1        0.0206
     34 C         139.7164  142.7597  170.4037 C.1     1  UNL1        0.1004
     35 N         139.0139  143.5201  171.4891 N.1     1  UNL1       -0.1908
@<TRIPOS>BOND
     1    19    20    3
     2    20    13    1
     3    13    14   ar
     4    14    15   ar
     5    15    16   ar
     6    16    12    1
     7    12    11    1
     8    11    10    1
     9    10     1    1
    10     1     2    1
    11     2     3    1
    12     3     4    1
    13     4     5    1
    14     5    21    1
    15    21    22    1
    16    22    23    1
    17    23    25    1
    18    25    26    2
    19    25    27    2
    20    25    28    1
    21    28    29   ar
    22    29    30   ar
    23    30    31   ar
    24    31    34    1
    25    34    35    3
    26    31    32   ar
    27    32    33   ar
    28     5     6    1
    29     6     7    1
    30     7     8    1
    31     7     9    1
    32    16    17   ar
    33    17    18   ar
    34    18    13   ar
    35     8     1    1
    36     9     3    1
    37    33    28   ar
    38    23    24    1
@<TRIPOS>MOLECULE
*****
 35 38 0 0 0
SMALL
GASTEIGER

@<TRIPOS>ATOM
      1 N         143.2685  140.1640  163.1484 N.3     1  UNL1       -0.2653
      2 C         143.6965  141.5330  163.5873 C.3     1  UNL1        0.1036
      3 C         143.2789  142.7383  162.7980 C.3     1  UNL1        0.1470
      4 C         142.8614  143.9436  162.0086 C.3     1  UNL1        0.1035
      5 N         142.0159  143.7798  160.7805 N.3     1  UNL1       -0.2673
      6 C         141.5879  142.4107  160.3417 C.3     1  UNL1        0.1035
      7 C         142.0054  141.2055  161.1310 C.3     1  UNL1        0.1470
      8 C         142.4230  140.0003  161.9203 C.3     1  UNL1        0.1036
      9 O         142.4334  142.5745  161.5698 O.3     1  UNL1       -0.3530
     10 C         143.6860  138.9587  163.9378 C.3     1  UNL1        0.1202
     11 C         143.8133  139.0464  165.4297 C.3     1  UNL1        0.2226
     12 O         142.6021  138.8720  166.2974 O.3     1  UNL1       -0.4740
     13 C         141.0376  142.3400  168.7006 C.ar    1  UNL1        0.0686
     14 C         142.2702  142.5042  167.8616 C.ar    1  UNL1        0.0134
     15 C         142.7916  141.3482  167.0605 C.ar    1  UNL1        0.0376
     16 C         142.0806  140.0280  167.0984 C.ar    1  UNL1        0.1387
     17 C         140.8481  139.8638  167.9373 C.ar    1  UNL1        0.0376
     18 C         140.3265  141.0198  168.7385 C.ar    1  UNL1        0.0134
     19 N         139.9946  144.6519  170.3027 N.1     1  UNL1       -0.1908
     20 C         140.5161  143.4959  169.5016 C.1     1  UNL1        0.1004
     21 C         141.5984  144.9850  159.9912 C.3     1  UNL1        0.0913
     22 C         140.1703  145.4431  160.0207 C.3     1  UNL1        0.1087
     23 N         139.4702  145.6321  161.3338 N.3     1  UNL1       -0.1780
     24 H         138.5740  146.0738  161.1288 H       1  UNL1        0.1488
     25 S         139.1794  144.4469  162.2060 S.O2    1  UNL1        0.0603
     26 O         139.8596  145.1270  163.3569 O.2     1  UNL1       -0.1530
     27 O         138.4991  143.7668  161.0550 O.2     1  UNL1       -0.1530
     28 C         138.8884  143.2617  163.0782 C.ar    1  UNL1        0.1220
     29 C         139.7116  143.0153  164.3077 C.ar    1  UNL1        0.0206
     30 C         139.4207  141.8301  165.1799 C.ar    1  UNL1        0.0116
     31 C         138.3067  140.8914  164.8226 C.ar    1  UNL1        0.0685
     32 C         137.4836  141.1378  163.5930 C.ar    1  UNL1        0.0116
     33 C         137.7745  142.3229  162.7209 C.ar    1  UNL1        0.0206
     34 C         138.0158  139.7061  165.6948 C.1     1  UNL1        0.1004
     35 N         137.7249  138.5210  166.5669 N.1     1  UNL1       -0.1908
@<TRIPOS>BOND
     1    19    20    3
     2    20    13    1
     3    13    14   ar
     4    14    15   ar
     5    15    16   ar
     6    16    12    1
     7    12    11    1
     8    11    10    1
     9    10     1    1
    10     1     2    1
    11     2     3    1
    12     3     4    1
    13     4     5    1
    14     5    21    1
    15    21    22    1
    16    22    23    1
    17    23    25    1
    18    25    26    2
    19    25    27    2
    20    25    28    1
    21    28    29   ar
    22    29    30   ar
    23    30    31   ar
    24    31    34    1
    25    34    35    3
    26    31    32   ar
    27    32    33   ar
    28     5     6    1
    29     6     7    1
    30     7     8    1
    31     7     9    1
    32    16    17   ar
    33    17    18   ar
    34    18    13   ar
    35     8     1    1
    36     9     3    1
    37    33    28   ar
    38    23    24    1
@<TRIPOS>MOLECULE
*****
 35 38 0 0 0
SMALL
GASTEIGER

@<TRIPOS>ATOM
      1 N         143.3708  140.4240  160.7481 N.3     1  UNL1       -0.2653
      2 C         142.2482  140.5846  159.7663 C.3     1  UNL1        0.1036
      3 C         141.5242  141.8942  159.6626 C.3     1  UNL1        0.1470
      4 C         140.8001  143.2038  159.5589 C.3     1  UNL1        0.1035
      5 N         141.1986  144.3527  160.4370 N.3     1  UNL1       -0.2673
      6 C         142.3213  144.1921  161.4188 C.3     1  UNL1        0.1035
      7 C         143.0453  142.8825  161.5225 C.3     1  UNL1        0.1470
      8 C         143.7694  141.5730  161.6262 C.3     1  UNL1        0.1036
      9 O         141.9227  143.0431  160.5407 O.3     1  UNL1       -0.3530
     10 C         144.0949  139.1144  160.8518 C.3     1  UNL1        0.1202
     11 C         143.4596  137.9610  161.5701 C.3     1  UNL1        0.2226
     12 O         142.0052  137.6578  161.3631 O.3     1  UNL1       -0.4740
     13 C         139.1686  137.7497  164.8553 C.ar    1  UNL1        0.0686
     14 C         138.6334  137.7538  163.4540 C.ar    1  UNL1        0.0134
     15 C         139.5789  137.7232  162.2900 C.ar    1  UNL1        0.0376
     16 C         141.0596  137.6885  162.5272 C.ar    1  UNL1        0.1387
     17 C         141.5949  137.6844  163.9284 C.ar    1  UNL1        0.0376
     18 C         140.6493  137.7150  165.0925 C.ar    1  UNL1        0.0134
     19 N         137.2776  137.8110  167.1834 N.1     1  UNL1       -0.1908
     20 C         138.2231  137.7804  166.0194 C.1     1  UNL1        0.1004
     21 C         140.4746  145.6623  160.3333 C.3     1  UNL1        0.0913
     22 C         139.6623  146.1639  161.4904 C.3     1  UNL1        0.1087
     23 N         138.5654  145.3146  162.0608 N.3     1  UNL1       -0.1780
     24 H         138.1931  144.7584  161.2911 H       1  UNL1        0.1488
     25 S         138.8603  144.3613  163.1807 S.O2    1  UNL1        0.0603
     26 O         139.8072  145.3585  163.7800 O.2     1  UNL1       -0.1530
     27 O         137.9135  143.3642  162.5814 O.2     1  UNL1       -0.1530
     28 C         139.1552  143.4080  164.3007 C.ar    1  UNL1        0.1220
     29 C         138.4749  142.0720  164.3471 C.ar    1  UNL1        0.0206
     30 C         138.7698  141.1187  165.4670 C.ar    1  UNL1        0.0116
     31 C         139.7450  141.5015  166.5405 C.ar    1  UNL1        0.0685
     32 C         140.4253  142.8375  166.4941 C.ar    1  UNL1        0.0116
     33 C         140.1304  143.7908  165.3742 C.ar    1  UNL1        0.0206
     34 C         140.0399  140.5482  167.6605 C.1     1  UNL1        0.1004
     35 N         140.3348  139.5949  168.7805 N.1     1  UNL1       -0.1908
@<TRIPOS>BOND
     1    19    20    3
     2    20    13    1
     3    13    14   ar
     4    14    15   ar
     5    15    16   ar
     6    16    12    1
     7    12    11    1
     8    11    10    1
     9    10     1    1
    10     1     2    1
    11     2     3    1
    12     3     4    1
    13     4     5    1
    14     5    21    1
    15    21    22    1
    16    22    23    1
    17    23    25    1
    18    25    26    2
    19    25    27    2
    20    25    28    1
    21    28    29   ar
    22    29    30   ar
    23    30    31   ar
    24    31    34    1
    25    34    35    3
    26    31    32   ar
    27    32    33   ar
    28     5     6    1
    29     6     7    1
    30     7     8    1
    31     7     9    1
    32    16    17   ar
    33    17    18   ar
    34    18    13   ar
    35     8     1    1
    36     9     3    1
    37    33    28   ar
    38    23    24    1
@<TRIPOS>MOLECULE
*****
 35 38 0 0 0
SMALL
GASTEIGER

@<TRIPOS>ATOM
      1 N         141.0806  144.3167  160.6821 N.3     1  UNL1       -0.2653
      2 C         142.4044  144.2669  161.3857 C.3     1  UNL1        0.1036
      3 C         143.1382  142.9647  161.5117 C.3     1  UNL1        0.1470
      4 C         143.8720  141.6625  161.6378 C.3     1  UNL1        0.1035
      5 N         143.2819  140.4102  161.0603 N.3     1  UNL1       -0.2673
      6 C         141.9581  140.4601  160.3567 C.3     1  UNL1        0.1035
      7 C         141.2243  141.7622  160.2306 C.3     1  UNL1        0.1470
      8 C         140.4906  143.0644  160.1046 C.3     1  UNL1        0.1036
      9 O         142.5481  141.7124  160.9342 O.3     1  UNL1       -0.3530
     10 C         140.3468  145.6189  160.5560 C.3     1  UNL1        0.1202
     11 C         139.6553  146.2087  161.7493 C.3     1  UNL1        0.2226
     12 O         138.4368  145.5417  162.3157 O.3     1  UNL1       -0.4740
     13 C         138.8795  142.0018  165.0585 C.ar    1  UNL1        0.0686
     14 C         139.7266  143.2222  165.2662 C.ar    1  UNL1        0.0134
     15 C         139.5791  144.4021  164.3520 C.ar    1  UNL1        0.0376
     16 C         138.5844  144.3618  163.2299 C.ar    1  UNL1        0.1387
     17 C         137.7373  143.1415  163.0221 C.ar    1  UNL1        0.0376
     18 C         137.8848  141.9615  163.9364 C.ar    1  UNL1        0.0134
     19 N         139.1745  139.6419  166.8870 N.1     1  UNL1       -0.1908
     20 C         139.0270  140.8219  165.9727 C.1     1  UNL1        0.1004
     21 C         144.0157  139.1080  161.1863 C.3     1  UNL1        0.0913
     22 C         143.9587  138.3363  162.4714 C.3     1  UNL1        0.1087
     23 N         142.7458  138.4295  163.3490 N.3     1  UNL1       -0.1780
     24 H         142.5245  137.4795  163.6472 H       1  UNL1        0.1488
     25 S         142.7793  139.2753  164.5872 S.O2    1  UNL1        0.0603
     26 O         143.8358  138.3830  165.1682 O.2     1  UNL1       -0.1530
     27 O         141.7228  140.1676  164.0063 O.2     1  UNL1       -0.1530
     28 C         142.8127  140.1212  165.8256 C.ar    1  UNL1        0.1220
     29 C         142.6542  139.4835  167.1740 C.ar    1  UNL1        0.0206
     30 C         142.6876  140.3293  168.4123 C.ar    1  UNL1        0.0116
     31 C         142.8796  141.8128  168.3022 C.ar    1  UNL1        0.0685
     32 C         143.0381  142.4506  166.9538 C.ar    1  UNL1        0.0116
     33 C         143.0047  141.6048  165.7155 C.ar    1  UNL1        0.0206
     34 C         142.9130  142.6588  169.5405 C.1     1  UNL1        0.1004
     35 N         142.9464  143.5046  170.7788 N.1     1  UNL1       -0.1908
@<TRIPOS>BOND
     1    19    20    3
     2    20    13    1
     3    13    14   ar
     4    14    15   ar
     5    15    16   ar
     6    16    12    1
     7    12    11    1
     8    11    10    1
     9    10     1    1
    10     1     2    1
    11     2     3    1
    12     3     4    1
    13     4     5    1
    14     5    21    1
    15    21    22    1
    16    22    23    1
    17    23    25    1
    18    25    26    2
    19    25    27    2
    20    25    28    1
    21    28    29   ar
    22    29    30   ar
    23    30    31   ar
    24    31    34    1
    25    34    35    3
    26    31    32   ar
    27    32    33   ar
    28     5     6    1
    29     6     7    1
    30     7     8    1
    31     7     9    1
    32    16    17   ar
    33    17    18   ar
    34    18    13   ar
    35     8     1    1
    36     9     3    1
    37    33    28   ar
    38    23    24    1
@<TRIPOS>MOLECULE
*****
 35 38 0 0 0
SMALL
GASTEIGER

@<TRIPOS>ATOM
      1 N         142.1938  140.0922  159.3603 N.3     1  UNL1       -0.2653
      2 C         143.1917  141.1984  159.5344 C.3     1  UNL1        0.1036
      3 C         142.7277  142.5751  159.9079 C.3     1  UNL1        0.1470
      4 C         142.2638  143.9518  160.2814 C.3     1  UNL1        0.1035
      5 N         140.8019  144.2223  160.4807 N.3     1  UNL1       -0.2673
      6 C         139.8039  143.1160  160.3065 C.3     1  UNL1        0.1035
      7 C         140.2679  141.7393  159.9331 C.3     1  UNL1        0.1470
      8 C         140.7319  140.3627  159.5596 C.3     1  UNL1        0.1036
      9 O         141.2658  142.8455  160.1072 O.3     1  UNL1       -0.3530
     10 C         142.6577  138.7155  158.9868 C.3     1  UNL1        0.1202
     11 C         142.9008  137.6905  160.0546 C.3     1  UNL1        0.2226
     12 O         141.8457  137.4162  161.0850 O.3     1  UNL1       -0.4740
     13 C         142.5243  138.6045  165.3719 C.ar    1  UNL1        0.0686
     14 C         143.4722  139.0685  164.3059 C.ar    1  UNL1        0.0134
     15 C         143.2460  138.6724  162.8770 C.ar    1  UNL1        0.0376
     16 C         142.0719  137.8123  162.5140 C.ar    1  UNL1        0.1387
     17 C         141.1240  137.3483  163.5799 C.ar    1  UNL1        0.0376
     18 C         141.3502  137.7444  165.0089 C.ar    1  UNL1        0.0134
     19 N         142.9767  139.3967  168.2298 N.1     1  UNL1       -0.1908
     20 C         142.7505  139.0006  166.8008 C.1     1  UNL1        0.1004
     21 C         140.3379  145.5989  160.8542 C.3     1  UNL1        0.0913
     22 C         139.7753  145.8558  162.2208 C.3     1  UNL1        0.1087
     23 N         140.4570  145.2896  163.4310 N.3     1  UNL1       -0.1780
     24 H         140.3920  145.9966  164.1633 H       1  UNL1        0.1488
     25 S         139.9752  144.0012  164.0291 S.O2    1  UNL1        0.0603
     26 O         141.3724  143.4574  163.9831 O.2     1  UNL1       -0.1530
     27 O         138.5781  144.5450  164.0752 O.2     1  UNL1       -0.1530
     28 C         139.4934  142.7127  164.6272 C.ar    1  UNL1        0.1220
     29 C         138.4119  141.9277  163.9458 C.ar    1  UNL1        0.0206
     30 C         137.9301  140.6392  164.5439 C.ar    1  UNL1        0.0116
     31 C         138.5296  140.1358  165.8233 C.ar    1  UNL1        0.0685
     32 C         139.6111  140.9208  166.5047 C.ar    1  UNL1        0.0116
     33 C         140.0929  142.2092  165.9067 C.ar    1  UNL1        0.0206
     34 C         138.0478  138.8473  166.4215 C.1     1  UNL1        0.1004
     35 N         137.5659  137.5589  167.0195 N.1     1  UNL1       -0.1908
@<TRIPOS>BOND
     1    19    20    3
     2    20    13    1
     3    13    14   ar
     4    14    15   ar
     5    15    16   ar
     6    16    12    1
     7    12    11    1
     8    11    10    1
     9    10     1    1
    10     1     2    1
    11     2     3    1
    12     3     4    1
    13     4     5    1
    14     5    21    1
    15    21    22    1
    16    22    23    1
    17    23    25    1
    18    25    26    2
    19    25    27    2
    20    25    28    1
    21    28    29   ar
    22    29    30   ar
    23    30    31   ar
    24    31    34    1
    25    34    35    3
    26    31    32   ar
    27    32    33   ar
    28     5     6    1
    29     6     7    1
    30     7     8    1
    31     7     9    1
    32    16    17   ar
    33    17    18   ar
    34    18    13   ar
    35     8     1    1
    36     9     3    1
    37    33    28   ar
    38    23    24    1
@<TRIPOS>MOLECULE
*****
 35 38 0 0 0
SMALL
GASTEIGER

@<TRIPOS>ATOM
      1 N         141.0709  144.3855  160.7114 N.3     1  UNL1       -0.2653
      2 C         140.4947  143.1890  160.0139 C.3     1  UNL1        0.1036
      3 C         141.2464  141.8910  160.0067 C.3     1  UNL1        0.1470
      4 C         141.9980  140.5929  159.9995 C.3     1  UNL1        0.1035
      5 N         143.3258  140.4913  160.6899 N.3     1  UNL1       -0.2673
      6 C         143.9020  141.6878  161.3874 C.3     1  UNL1        0.1035
      7 C         143.1504  142.9858  161.3946 C.3     1  UNL1        0.1470
      8 C         142.3987  144.2838  161.4018 C.3     1  UNL1        0.1036
      9 O         142.5742  141.7894  160.6971 O.3     1  UNL1       -0.3530
     10 C         140.3193  145.6836  160.7186 C.3     1  UNL1        0.1202
     11 C         139.5449  146.0951  161.9355 C.3     1  UNL1        0.2226
     12 O         138.2538  145.4088  162.2705 O.3     1  UNL1       -0.4740
     13 C         138.2932  141.5316  164.5543 C.ar    1  UNL1        0.0686
     14 C         137.6645  141.5943  163.1938 C.ar    1  UNL1        0.0134
     15 C         137.6514  142.8867  162.4325 C.ar    1  UNL1        0.0376
     16 C         138.2669  144.1164  163.0317 C.ar    1  UNL1        0.1387
     17 C         138.8955  144.0537  164.3922 C.ar    1  UNL1        0.0376
     18 C         138.9087  142.7613  165.1535 C.ar    1  UNL1        0.0134
     19 N         138.3194  138.9469  166.0768 N.1     1  UNL1       -0.1908
     20 C         138.3063  140.2392  165.3156 C.1     1  UNL1        0.1004
     21 C         144.0775  139.1932  160.6827 C.3     1  UNL1        0.0913
     22 C         143.9280  138.2336  161.8260 C.3     1  UNL1        0.1087
     23 N         144.5741  138.5334  163.1460 N.3     1  UNL1       -0.1780
     24 H         145.4474  139.0196  162.9428 H       1  UNL1        0.1488
     25 S         143.8471  139.3574  164.1669 S.O2    1  UNL1        0.0603
     26 O         142.6354  138.4882  164.0057 O.2     1  UNL1       -0.1530
     27 O         145.0589  140.2267  164.3282 O.2     1  UNL1       -0.1530
     28 C         143.1201  140.1816  165.1879 C.ar    1  UNL1        0.1220
     29 C         143.2503  141.6759  165.1762 C.ar    1  UNL1        0.0206
     30 C         142.5233  142.5001  166.1971 C.ar    1  UNL1        0.0116
     31 C         141.6662  141.8299  167.2296 C.ar    1  UNL1        0.0685
     32 C         141.5360  140.3356  167.2413 C.ar    1  UNL1        0.0116
     33 C         142.2630  139.5115  166.2204 C.ar    1  UNL1        0.0206
     34 C         140.9392  142.6541  168.2506 C.1     1  UNL1        0.1004
     35 N         140.2122  143.4783  169.2715 N.1     1  UNL1       -0.1908
@<TRIPOS>BOND
     1    19    20    3
     2    20    13    1
     3    13    14   ar
     4    14    15   ar
     5    15    16   ar
     6    16    12    1
     7    12    11    1
     8    11    10    1
     9    10     1    1
    10     1     2    1
    11     2     3    1
    12     3     4    1
    13     4     5    1
    14     5    21    1
    15    21    22    1
    16    22    23    1
    17    23    25    1
    18    25    26    2
    19    25    27    2
    20    25    28    1
    21    28    29   ar
    22    29    30   ar
    23    30    31   ar
    24    31    34    1
    25    34    35    3
    26    31    32   ar
    27    32    33   ar
    28     5     6    1
    29     6     7    1
    30     7     8    1
    31     7     9    1
    32    16    17   ar
    33    17    18   ar
    34    18    13   ar
    35     8     1    1
    36     9     3    1
    37    33    28   ar
    38    23    24    1
@<TRIPOS>MOLECULE
*****
 35 38 0 0 0
SMALL
GASTEIGER

@<TRIPOS>ATOM
      1 N         142.1349  139.7496  159.5751 N.3     1  UNL1       -0.2653
      2 C         143.1402  140.8484  159.7536 C.3     1  UNL1        0.1036
      3 C         142.6790  142.2609  159.9588 C.3     1  UNL1        0.1470
      4 C         142.2178  143.6734  160.1640 C.3     1  UNL1        0.1035
      5 N         140.7512  143.9871  160.1908 N.3     1  UNL1       -0.2673
      6 C         139.7458  142.8882  160.0123 C.3     1  UNL1        0.1035
      7 C         140.2070  141.4757  159.8071 C.3     1  UNL1        0.1470
      8 C         140.6683  140.0633  159.6019 C.3     1  UNL1        0.1036
      9 O         141.2124  142.5745  159.9856 O.3     1  UNL1       -0.3530
     10 C         142.5961  138.3371  159.3698 C.3     1  UNL1        0.1202
     11 C         142.8283  137.4445  160.5528 C.3     1  UNL1        0.2226
     12 O         143.0284  138.0410  161.9146 O.3     1  UNL1       -0.4740
     13 C         139.6359  138.0887  164.8706 C.ar    1  UNL1        0.0686
     14 C         141.0213  138.4566  165.3128 C.ar    1  UNL1        0.0134
     15 C         142.1521  138.4407  164.3275 C.ar    1  UNL1        0.0376
     16 C         141.8976  138.0569  162.8999 C.ar    1  UNL1        0.1387
     17 C         140.5123  137.6890  162.4577 C.ar    1  UNL1        0.0376
     18 C         139.3814  137.7049  163.4430 C.ar    1  UNL1        0.0134
     19 N         137.3742  138.1206  166.8413 N.1     1  UNL1       -0.1908
     20 C         138.5051  138.1046  165.8560 C.1     1  UNL1        0.1004
     21 C         140.2899  145.3995  160.3961 C.3     1  UNL1        0.0913
     22 C         139.8951  145.8681  161.7652 C.3     1  UNL1        0.1087
     23 N         140.9429  146.0741  162.8186 N.3     1  UNL1       -0.1780
     24 H         140.6430  146.8708  163.3804 H       1  UNL1        0.1488
     25 S         141.2707  144.9675  163.7767 S.O2    1  UNL1        0.0603
     26 O         142.7301  145.1398  163.4764 O.2     1  UNL1       -0.1530
     27 O         139.8112  144.7952  164.0770 O.2     1  UNL1       -0.1530
     28 C         141.5984  143.8609  164.7349 C.ar    1  UNL1        0.1220
     29 C         140.5262  143.2868  165.6128 C.ar    1  UNL1        0.0206
     30 C         140.8539  142.1802  166.5709 C.ar    1  UNL1        0.0116
     31 C         142.2539  141.6478  166.6512 C.ar    1  UNL1        0.0685
     32 C         143.3261  142.2219  165.7734 C.ar    1  UNL1        0.0116
     33 C         142.9984  143.3285  164.8152 C.ar    1  UNL1        0.0206
     34 C         142.5816  140.5412  167.6094 C.1     1  UNL1        0.1004
     35 N         142.9094  139.4346  168.5675 N.1     1  UNL1       -0.1908
@<TRIPOS>BOND
     1    19    20    3
     2    20    13    1
     3    13    14   ar
     4    14    15   ar
     5    15    16   ar
     6    16    12    1
     7    12    11    1
     8    11    10    1
     9    10     1    1
    10     1     2    1
    11     2     3    1
    12     3     4    1
    13     4     5    1
    14     5    21    1
    15    21    22    1
    16    22    23    1
    17    23    25    1
    18    25    26    2
    19    25    27    2
    20    25    28    1
    21    28    29   ar
    22    29    30   ar
    23    30    31   ar
    24    31    34    1
    25    34    35    3
    26    31    32   ar
    27    32    33   ar
    28     5     6    1
    29     6     7    1
    30     7     8    1
    31     7     9    1
    32    16    17   ar
    33    17    18   ar
    34    18    13   ar
    35     8     1    1
    36     9     3    1
    37    33    28   ar
    38    23    24    1
@<TRIPOS>MOLECULE
*****
 35 38 0 0 0
SMALL
GASTEIGER

@<TRIPOS>ATOM
      1 N         144.5048  141.3792  162.1166 N.3     1  UNL1       -0.2653
      2 C         143.9544  139.9862  162.1973 C.3     1  UNL1        0.1036
      3 C         142.7968  139.5859  161.3315 C.3     1  UNL1        0.1470
      4 C         141.6391  139.1855  160.4656 C.3     1  UNL1        0.1035
      5 N         141.0319  140.1782  159.5192 N.3     1  UNL1       -0.2673
      6 C         141.5823  141.5713  159.4385 C.3     1  UNL1        0.1035
      7 C         142.7399  141.9716  160.3043 C.3     1  UNL1        0.1470
      8 C         143.8975  142.3719  161.1701 C.3     1  UNL1        0.1036
      9 O         142.1895  140.5786  160.3850 O.3     1  UNL1       -0.3530
     10 C         145.6624  141.7796  162.9824 C.3     1  UNL1        0.1202
     11 C         145.4482  142.0536  164.4415 C.3     1  UNL1        0.2226
     12 O         144.7685  143.3186  164.8751 O.3     1  UNL1       -0.4740
     13 C         140.5468  144.1663  163.5679 C.ar    1  UNL1        0.0686
     14 C         141.6210  145.1892  163.3442 C.ar    1  UNL1        0.0134
     15 C         143.0282  144.9066  163.7799 C.ar    1  UNL1        0.0376
     16 C         143.3613  143.6012  164.4394 C.ar    1  UNL1        0.1387
     17 C         142.2872  142.5783  164.6630 C.ar    1  UNL1        0.0376
     18 C         140.8799  142.8609  164.2273 C.ar    1  UNL1        0.0134
     19 N         137.7324  144.7315  162.6964 N.1     1  UNL1       -0.1908
     20 C         139.1396  144.4489  163.1321 C.1     1  UNL1        0.1004
     21 C         139.8743  139.7779  158.6534 C.3     1  UNL1        0.0913
     22 C         138.4934  140.2690  158.9731 C.3     1  UNL1        0.1087
     23 N         137.6197  139.4916  159.9125 N.3     1  UNL1       -0.1780
     24 H         137.6712  138.5151  159.6224 H       1  UNL1        0.1488
     25 S         137.8923  139.5202  161.3872 S.O2    1  UNL1        0.0603
     26 O         138.3973  138.1093  161.3212 O.2     1  UNL1       -0.1530
     27 O         137.3874  140.9311  161.4532 O.2     1  UNL1       -0.1530
     28 C         138.1649  139.5488  162.8620 C.ar    1  UNL1        0.1220
     29 C         138.7230  138.3356  163.5452 C.ar    1  UNL1        0.0206
     30 C         138.9956  138.3641  165.0199 C.ar    1  UNL1        0.0116
     31 C         138.7101  139.6059  165.8114 C.ar    1  UNL1        0.0685
     32 C         138.1520  140.8190  165.1282 C.ar    1  UNL1        0.0116
     33 C         137.8794  140.7905  163.6535 C.ar    1  UNL1        0.0206
     34 C         138.9827  139.6345  167.2862 C.1     1  UNL1        0.1004
     35 N         139.2552  139.6631  168.7609 N.1     1  UNL1       -0.1908
@<TRIPOS>BOND
     1    19    20    3
     2    20    13    1
     3    13    14   ar
     4    14    15   ar
     5    15    16   ar
     6    16    12    1
     7    12    11    1
     8    11    10    1
     9    10     1    1
    10     1     2    1
    11     2     3    1
    12     3     4    1
    13     4     5    1
    14     5    21    1
    15    21    22    1
    16    22    23    1
    17    23    25    1
    18    25    26    2
    19    25    27    2
    20    25    28    1
    21    28    29   ar
    22    29    30   ar
    23    30    31   ar
    24    31    34    1
    25    34    35    3
    26    31    32   ar
    27    32    33   ar
    28     5     6    1
    29     6     7    1
    30     7     8    1
    31     7     9    1
    32    16    17   ar
    33    17    18   ar
    34    18    13   ar
    35     8     1    1
    36     9     3    1
    37    33    28   ar
    38    23    24    1
@<TRIPOS>MOLECULE
*****
 35 38 0 0 0
SMALL
GASTEIGER

@<TRIPOS>ATOM
      1 N         138.7833  139.1125  162.2420 N.3     1  UNL1       -0.2653
      2 C         139.6864  139.2226  161.0494 C.3     1  UNL1        0.1036
      3 C         139.9817  140.5673  160.4540 C.3     1  UNL1        0.1470
      4 C         140.2771  141.9120  159.8585 C.3     1  UNL1        0.1035
      5 N         139.6693  143.1466  160.4556 N.3     1  UNL1       -0.2673
      6 C         138.7661  143.0363  161.6483 C.3     1  UNL1        0.1035
      7 C         138.4708  141.6917  162.2437 C.3     1  UNL1        0.1470
      8 C         138.1755  140.3470  162.8391 C.3     1  UNL1        0.1036
      9 O         139.3739  141.8018  161.0511 O.3     1  UNL1       -0.3530
     10 C         138.4879  137.7677  162.8375 C.3     1  UNL1        0.1202
     11 C         139.2504  137.2961  164.0400 C.3     1  UNL1        0.2226
     12 O         140.6572  136.7982  163.8882 O.3     1  UNL1       -0.4740
     13 C         144.0555  139.7274  163.5390 C.ar    1  UNL1        0.0686
     14 C         143.6156  138.9424  162.3389 C.ar    1  UNL1        0.0134
     15 C         142.4828  137.9660  162.4553 C.ar    1  UNL1        0.0376
     16 C         141.7900  137.7746  163.7718 C.ar    1  UNL1        0.1387
     17 C         142.2298  138.5595  164.9719 C.ar    1  UNL1        0.0376
     18 C         143.3626  139.5360  164.8556 C.ar    1  UNL1        0.0134
     19 N         146.3209  141.6801  163.3062 N.1     1  UNL1       -0.1908
     20 C         145.1882  140.7038  163.4226 C.1     1  UNL1        0.1004
     21 C         139.9646  144.4912  159.8602 C.3     1  UNL1        0.0913
     22 C         140.8059  145.4774  160.6151 C.3     1  UNL1        0.1087
     23 N         142.1648  145.0798  161.1104 N.3     1  UNL1       -0.1780
     24 H         142.7364  145.9246  161.1119 H       1  UNL1        0.1488
     25 S         142.3156  144.4526  162.4646 S.O2    1  UNL1        0.0603
     26 O         141.3216  145.4257  163.0259 O.2     1  UNL1       -0.1530
     27 O         143.3095  143.4795  161.9032 O.2     1  UNL1       -0.1530
     28 C         142.4664  143.8254  163.8188 C.ar    1  UNL1        0.1220
     29 C         141.2802  143.2021  164.4929 C.ar    1  UNL1        0.0206
     30 C         141.4309  142.5748  165.8471 C.ar    1  UNL1        0.0116
     31 C         142.7679  142.5709  166.5271 C.ar    1  UNL1        0.0685
     32 C         143.9541  143.1941  165.8530 C.ar    1  UNL1        0.0116
     33 C         143.8033  143.8214  164.4988 C.ar    1  UNL1        0.0206
     34 C         142.9187  141.9436  167.8814 C.1     1  UNL1        0.1004
     35 N         143.0695  141.3163  169.2355 N.1     1  UNL1       -0.1908
@<TRIPOS>BOND
     1    19    20    3
     2    20    13    1
     3    13    14   ar
     4    14    15   ar
     5    15    16   ar
     6    16    12    1
     7    12    11    1
     8    11    10    1
     9    10     1    1
    10     1     2    1
    11     2     3    1
    12     3     4    1
    13     4     5    1
    14     5    21    1
    15    21    22    1
    16    22    23    1
    17    23    25    1
    18    25    26    2
    19    25    27    2
    20    25    28    1
    21    28    29   ar
    22    29    30   ar
    23    30    31   ar
    24    31    34    1
    25    34    35    3
    26    31    32   ar
    27    32    33   ar
    28     5     6    1
    29     6     7    1
    30     7     8    1
    31     7     9    1
    32    16    17   ar
    33    17    18   ar
    34    18    13   ar
    35     8     1    1
    36     9     3    1
    37    33    28   ar
    38    23    24    1
