@<TRIPOS>MOLECULE
*****
 33 37 0 0 0
SMALL
GASTEIGER

@<TRIPOS>ATOM
      1 C         143.1176  139.0397  159.0926 C.3     1  UNL1        0.0230
      2 C         143.4889  138.7326  160.5131 C.3     1  UNL1        0.0233
      3 C         143.9531  138.7251  161.9394 C.3     1  UNL1        0.0935
      4 N         144.4750  140.0933  162.2643 N.am    1  UNL1       -0.2795
      5 C         145.0395  140.5313  163.5832 C.2     1  UNL1        0.2260
      6 O         145.1181  139.5614  164.7248 O.2     1  UNL1       -0.2749
      7 C         144.3335  140.9465  161.0388 C.3     1  UNL1        0.0935
      8 C         143.7240  140.1055  159.9565 C.3     1  UNL1        0.0233
      9 C         142.5532  138.6016  157.7737 C.3     1  UNL1        0.0898
     10 O         144.2985  136.9982  155.9345 O.2     1  UNL1       -0.2702
     11 C         143.1267  136.3503  156.6106 C.2     1  UNL1        0.2456
     12 N         142.2541  137.1520  157.5302 N.am    1  UNL1       -0.3009
     13 H         141.4850  136.7268  157.9740 H       1  UNL1        0.1497
     14 C         142.8276  134.9007  156.3671 C.2     1  UNL1        0.0525
     15 C         141.7765  134.5088  155.3713 C.2     1  UNL1       -0.0153
     16 C         141.4775  133.0592  155.1278 C.3     1  UNL1        0.0726
     17 C         142.2294  132.0016  155.8802 C.2     1  UNL1        0.0933
     18 N         142.1532  130.5038  155.8518 N.am    1  UNL1       -0.1431
     19 C         143.1572  129.9701  156.8301 C.2     1  UNL1        0.4298
     20 O         143.4187  128.5225  157.1240 O.2     1  UNL1       -0.2238
     21 O         143.8539  131.1380  157.4631 O.3     1  UNL1       -0.4079
     22 C         143.2805  132.3936  156.8760 C.2     1  UNL1        0.1618
     23 C         143.5795  133.8431  157.1194 C.2     1  UNL1        0.0429
     24 C         145.5253  141.9394  163.7606 C.3     1  UNL1        0.0899
     25 C         144.9503  142.7999  164.8464 C.3     1  UNL1        0.0360
     26 C         143.4888  143.1373  164.8412 C.ar    1  UNL1       -0.0200
     27 C         142.5596  142.4613  165.8054 C.ar    1  UNL1        0.0072
     28 C         141.0980  142.7987  165.8002 C.ar    1  UNL1        0.0582
     29 CL        140.1688  142.1227  166.7644 Cl      1  UNL1       -0.0822
     30 C         140.5656  143.8120  164.8307 C.ar    1  UNL1        0.0228
     31 C         141.4948  144.4880  163.8666 C.ar    1  UNL1        0.0582
     32 CL        140.9625  145.5013  162.8971 Cl      1  UNL1       -0.0822
     33 C         142.9564  144.1506  163.8718 C.ar    1  UNL1        0.0072
@<TRIPOS>BOND
     1    10    11    2
     2    11    12   am
     3    12     9    1
     4     1     9    1
     5     1     2    1
     6     2     3    1
     7     3     4    1
     8     4     5   am
     9     5     6    2
    10     5    24    1
    11    24    25    1
    12    25    26    1
    13    26    27   ar
    14    27    28   ar
    15    28    29    1
    16    28    30   ar
    17    30    31   ar
    18    31    32    1
    19    31    33   ar
    20     4     7    1
    21     8     7    1
    22    11    14    1
    23    14    15    2
    24    15    16    1
    25    16    17    1
    26    17    18    2
    27    18    19    1
    28    19    20    2
    29    19    21    1
    30    21    22    1
    31    22    23    2
    32     8     1    1
    33    23    14    1
    34     8     2    1
    35    22    17    1
    36    33    26   ar
    37    12    13    1
@<TRIPOS>MOLECULE
*****
 33 37 0 0 0
SMALL
GASTEIGER

@<TRIPOS>ATOM
      1 C         143.1059  138.9563  158.9591 C.3     1  UNL1        0.0230
      2 C         143.5559  138.7005  160.3670 C.3     1  UNL1        0.0233
      3 C         144.0581  138.7540  161.7794 C.3     1  UNL1        0.0935
      4 N         144.4018  140.1795  162.0955 N.am    1  UNL1       -0.2795
      5 C         144.9406  140.6882  163.3997 C.2     1  UNL1        0.2260
      6 O         145.1812  139.7366  164.5341 O.2     1  UNL1       -0.2749
      7 C         144.1120  141.0070  160.8785 C.3     1  UNL1        0.0935
      8 C         143.5892  140.0929  159.8102 C.3     1  UNL1        0.0233
      9 C         142.5671  138.4476  157.6550 C.3     1  UNL1        0.0898
     10 O         144.3570  136.7955  155.9037 O.2     1  UNL1       -0.2702
     11 C         143.1916  136.1571  156.5996 C.2     1  UNL1        0.2456
     12 N         142.2967  136.9831  157.4752 N.am    1  UNL1       -0.3009
     13 H         141.5318  136.5641  157.9320 H       1  UNL1        0.1497
     14 C         142.9212  134.6926  156.4199 C.2     1  UNL1        0.0525
     15 C         141.8312  134.2393  155.4945 C.2     1  UNL1       -0.0153
     16 C         141.5609  132.7748  155.3148 C.3     1  UNL1        0.0726
     17 C         142.3805  131.7638  156.0605 C.2     1  UNL1        0.0933
     18 N         142.3452  130.2644  156.0852 N.am    1  UNL1       -0.1431
     19 C         143.4134  129.7911  157.0259 C.2     1  UNL1        0.4298
     20 O         143.7306  128.3618  157.3527 O.2     1  UNL1       -0.2238
     21 O         144.1089  130.9980  157.5825 O.3     1  UNL1       -0.4079
     22 C         143.4705  132.2172  156.9858 C.2     1  UNL1        0.1618
     23 C         143.7408  133.6816  157.1655 C.2     1  UNL1        0.0429
     24 C         145.2388  142.1484  163.5696 C.3     1  UNL1        0.0899
     25 C         144.7837  142.8681  164.8045 C.3     1  UNL1        0.0360
     26 C         143.3218  142.9466  165.1309 C.ar    1  UNL1       -0.0200
     27 C         142.4198  143.8337  164.3249 C.ar    1  UNL1        0.0072
     28 C         140.9579  143.9121  164.6513 C.ar    1  UNL1        0.0582
     29 CL        140.0560  144.7992  163.8454 Cl      1  UNL1       -0.0822
     30 C         140.3979  143.1034  165.7839 C.ar    1  UNL1        0.0228
     31 C         141.2998  142.2164  166.5898 C.ar    1  UNL1        0.0582
     32 CL        140.7397  141.4077  167.7223 Cl      1  UNL1       -0.0822
     33 C         142.7617  142.1379  166.2634 C.ar    1  UNL1        0.0072
@<TRIPOS>BOND
     1    10    11    2
     2    11    12   am
     3    12     9    1
     4     1     9    1
     5     1     2    1
     6     2     3    1
     7     3     4    1
     8     4     5   am
     9     5     6    2
    10     5    24    1
    11    24    25    1
    12    25    26    1
    13    26    27   ar
    14    27    28   ar
    15    28    29    1
    16    28    30   ar
    17    30    31   ar
    18    31    32    1
    19    31    33   ar
    20     4     7    1
    21     8     7    1
    22    11    14    1
    23    14    15    2
    24    15    16    1
    25    16    17    1
    26    17    18    2
    27    18    19    1
    28    19    20    2
    29    19    21    1
    30    21    22    1
    31    22    23    2
    32     8     1    1
    33    23    14    1
    34     8     2    1
    35    22    17    1
    36    33    26   ar
    37    12    13    1
@<TRIPOS>MOLECULE
*****
 33 37 0 0 0
SMALL
GASTEIGER

@<TRIPOS>ATOM
      1 C         143.1331  138.8036  159.0904 C.3     1  UNL1        0.0230
      2 C         143.5280  138.5596  160.5167 C.3     1  UNL1        0.0233
      3 C         144.0022  138.6190  161.9386 C.3     1  UNL1        0.0935
      4 N         144.4640  140.0191  162.2151 N.am    1  UNL1       -0.2795
      5 C         145.0174  140.5245  163.5144 C.2     1  UNL1        0.2260
      6 O         145.1480  139.5964  164.6857 O.2     1  UNL1       -0.2749
      7 C         144.2752  140.8251  160.9642 C.3     1  UNL1        0.0935
      8 C         143.6967  139.9230  159.9145 C.3     1  UNL1        0.0233
      9 C         142.5797  138.2982  157.7911 C.3     1  UNL1        0.0898
     10 O         144.3553  136.7701  155.9170 O.2     1  UNL1       -0.2702
     11 C         143.2546  136.0633  156.6510 C.2     1  UNL1        0.2456
     12 N         142.3668  136.8273  157.5880 N.am    1  UNL1       -0.3009
     13 H         141.6444  136.3634  158.0698 H       1  UNL1        0.1497
     14 C         143.0417  134.5924  156.4480 C.2     1  UNL1        0.0525
     15 C         144.0004  133.6062  157.0465 C.2     1  UNL1       -0.0153
     16 C         143.7875  132.1353  156.8434 C.3     1  UNL1        0.0726
     17 C         142.6159  131.6507  156.0419 C.2     1  UNL1        0.0933
     18 N         142.1520  130.2721  155.6752 N.am    1  UNL1       -0.1431
     19 C         140.9066  130.4064  154.8501 C.2     1  UNL1        0.4298
     20 O         140.1072  129.2774  154.2700 O.2     1  UNL1       -0.2238
     21 O         140.6008  131.8679  154.7068 O.3     1  UNL1       -0.4079
     22 C         141.6572  132.6369  155.4433 C.2     1  UNL1        0.1618
     23 C         141.8701  134.1078  155.6464 C.2     1  UNL1        0.0429
     24 C         145.4402  141.9580  163.6426 C.3     1  UNL1        0.0899
     25 C         144.8861  142.8074  164.7478 C.3     1  UNL1        0.0360
     26 C         143.4258  143.1496  164.7706 C.ar    1  UNL1       -0.0200
     27 C         142.8845  144.1896  163.8349 C.ar    1  UNL1        0.0072
     28 C         141.4242  144.5317  163.8577 C.ar    1  UNL1        0.0582
     29 CL        140.8829  145.5717  162.9221 Cl      1  UNL1       -0.0822
     30 C         140.5052  143.8339  164.8162 C.ar    1  UNL1        0.0228
     31 C         141.0466  142.7939  165.7518 C.ar    1  UNL1        0.0582
     32 CL        140.1276  142.0961  166.7103 Cl      1  UNL1       -0.0822
     33 C         142.5068  142.4518  165.7290 C.ar    1  UNL1        0.0072
@<TRIPOS>BOND
     1    10    11    2
     2    11    12   am
     3    12     9    1
     4     1     9    1
     5     1     2    1
     6     2     3    1
     7     3     4    1
     8     4     5   am
     9     5     6    2
    10     5    24    1
    11    24    25    1
    12    25    26    1
    13    26    27   ar
    14    27    28   ar
    15    28    29    1
    16    28    30   ar
    17    30    31   ar
    18    31    32    1
    19    31    33   ar
    20     4     7    1
    21     8     7    1
    22    11    14    1
    23    14    15    2
    24    15    16    1
    25    16    17    1
    26    17    18    2
    27    18    19    1
    28    19    20    2
    29    19    21    1
    30    21    22    1
    31    22    23    2
    32     8     1    1
    33    23    14    1
    34     8     2    1
    35    22    17    1
    36    33    26   ar
    37    12    13    1
@<TRIPOS>MOLECULE
*****
 33 37 0 0 0
SMALL
GASTEIGER

@<TRIPOS>ATOM
      1 C         139.8303  138.3117  162.9813 C.3     1  UNL1        0.0230
      2 C         141.0515  138.5707  162.1497 C.3     1  UNL1        0.0233
      3 C         142.0798  138.7752  161.0770 C.3     1  UNL1        0.0935
      4 N         141.4123  138.5687  159.7496 N.am    1  UNL1       -0.2795
      5 C         142.0701  138.6756  158.4058 C.2     1  UNL1        0.2260
      6 O         143.5275  139.0174  158.3093 O.2     1  UNL1       -0.2749
      7 C         139.9715  138.2365  160.0020 C.3     1  UNL1        0.0935
      8 C         139.7486  138.2378  161.4854 C.3     1  UNL1        0.0233
      9 C         139.1725  138.2048  164.3251 C.3     1  UNL1        0.0898
     10 O         137.4459  138.7195  166.7238 O.2     1  UNL1       -0.2702
     11 C         138.8550  139.2324  166.6901 C.2     1  UNL1        0.2456
     12 N         139.7183  138.9751  165.4908 N.am    1  UNL1       -0.3009
     13 H         140.6432  139.3118  165.4687 H       1  UNL1        0.1497
     14 C         139.4008  140.0028  167.8558 C.2     1  UNL1        0.0525
     15 C         138.7124  139.9370  169.1868 C.2     1  UNL1       -0.0153
     16 C         139.2582  140.7073  170.3524 C.3     1  UNL1        0.0726
     17 C         140.4925  141.5434  170.1870 C.2     1  UNL1        0.0933
     18 N         141.2572  142.4052  171.1476 N.am    1  UNL1       -0.1431
     19 C         142.4183  143.0036  170.4102 C.2     1  UNL1        0.4298
     20 O         143.4461  143.9311  170.9876 O.2     1  UNL1       -0.2238
     21 O         142.3712  142.5116  168.9939 O.3     1  UNL1       -0.4079
     22 C         141.1810  141.6092  168.8560 C.2     1  UNL1        0.1618
     23 C         140.6352  140.8389  167.6904 C.2     1  UNL1        0.0429
     24 C         141.2706  138.4407  157.1586 C.3     1  UNL1        0.0899
     25 C         141.9256  137.8410  155.9497 C.3     1  UNL1        0.0360
     26 C         142.1581  136.3608  155.8794 C.ar    1  UNL1       -0.0200
     27 C         143.0225  135.6879  156.9043 C.ar    1  UNL1        0.0072
     28 C         143.2550  134.2077  156.8340 C.ar    1  UNL1        0.0582
     29 CL        144.1193  133.5347  157.8587 Cl      1  UNL1       -0.0822
     30 C         142.6232  133.4004  155.7389 C.ar    1  UNL1        0.0228
     31 C         141.7589  134.0733  154.7141 C.ar    1  UNL1        0.0582
     32 CL        141.1272  133.2660  153.6190 Cl      1  UNL1       -0.0822
     33 C         141.5264  135.5535  154.7844 C.ar    1  UNL1        0.0072
@<TRIPOS>BOND
     1    10    11    2
     2    11    12   am
     3    12     9    1
     4     1     9    1
     5     1     2    1
     6     2     3    1
     7     3     4    1
     8     4     5   am
     9     5     6    2
    10     5    24    1
    11    24    25    1
    12    25    26    1
    13    26    27   ar
    14    27    28   ar
    15    28    29    1
    16    28    30   ar
    17    30    31   ar
    18    31    32    1
    19    31    33   ar
    20     4     7    1
    21     8     7    1
    22    11    14    1
    23    14    15    2
    24    15    16    1
    25    16    17    1
    26    17    18    2
    27    18    19    1
    28    19    20    2
    29    19    21    1
    30    21    22    1
    31    22    23    2
    32     8     1    1
    33    23    14    1
    34     8     2    1
    35    22    17    1
    36    33    26   ar
    37    12    13    1
@<TRIPOS>MOLECULE
*****
 33 37 0 0 0
SMALL
GASTEIGER

@<TRIPOS>ATOM
      1 C         139.8457  138.3822  159.4710 C.3     1  UNL1        0.0230
      2 C         140.6864  138.3802  160.7132 C.3     1  UNL1        0.0233
      3 C         141.2543  138.3240  162.1004 C.3     1  UNL1        0.0935
      4 N         140.1254  138.0641  163.0533 N.am    1  UNL1       -0.2795
      5 C         140.2417  137.9318  164.5429 C.2     1  UNL1        0.2260
      6 O         141.5815  138.0606  165.2050 O.2     1  UNL1       -0.2749
      7 C         138.8597  137.9597  162.2551 C.3     1  UNL1        0.0935
      8 C         139.2065  138.1551  160.8088 C.3     1  UNL1        0.0233
      9 C         139.7294  138.5145  157.9814 C.3     1  UNL1        0.0898
     10 O         142.5707  137.7916  157.3456 O.2     1  UNL1       -0.2702
     11 C         141.4451  136.9767  156.7808 C.2     1  UNL1        0.2456
     12 N         140.0245  137.3382  157.0986 N.am    1  UNL1       -0.3009
     13 H         139.2857  136.8034  156.7278 H       1  UNL1        0.1497
     14 C         141.7402  135.8004  155.8980 C.2     1  UNL1        0.0525
     15 C         141.1541  135.7319  154.5190 C.2     1  UNL1       -0.0153
     16 C         141.4493  134.5556  153.6363 C.3     1  UNL1        0.0726
     17 C         142.3305  133.4478  154.1326 C.2     1  UNL1        0.0933
     18 N         142.7953  132.1724  153.4942 N.am    1  UNL1       -0.1431
     19 C         143.6687  131.4528  154.4787 C.2     1  UNL1        0.4298
     20 O         144.3479  130.1341  154.2557 O.2     1  UNL1       -0.2238
     21 O         143.7436  132.2834  155.7256 O.3     1  UNL1       -0.4079
     22 C         142.9166  133.5164  155.5116 C.2     1  UNL1        0.1618
     23 C         142.6215  134.6927  156.3943 C.2     1  UNL1        0.0429
     24 C         139.0182  137.6707  165.3705 C.3     1  UNL1        0.0899
     25 C         138.1774  138.8173  165.8487 C.3     1  UNL1        0.0360
     26 C         138.7408  140.2074  165.8586 C.ar    1  UNL1       -0.0200
     27 C         139.7207  140.6120  166.9198 C.ar    1  UNL1        0.0072
     28 C         140.2841  142.0021  166.9297 C.ar    1  UNL1        0.0582
     29 CL        141.2640  142.4067  167.9909 Cl      1  UNL1       -0.0822
     30 C         139.8676  142.9877  165.8784 C.ar    1  UNL1        0.0228
     31 C         138.8877  142.5831  164.8172 C.ar    1  UNL1        0.0582
     32 CL        138.4711  143.5687  163.7659 Cl      1  UNL1       -0.0822
     33 C         138.3243  141.1930  164.8073 C.ar    1  UNL1        0.0072
@<TRIPOS>BOND
     1    10    11    2
     2    11    12   am
     3    12     9    1
     4     1     9    1
     5     1     2    1
     6     2     3    1
     7     3     4    1
     8     4     5   am
     9     5     6    2
    10     5    24    1
    11    24    25    1
    12    25    26    1
    13    26    27   ar
    14    27    28   ar
    15    28    29    1
    16    28    30   ar
    17    30    31   ar
    18    31    32    1
    19    31    33   ar
    20     4     7    1
    21     8     7    1
    22    11    14    1
    23    14    15    2
    24    15    16    1
    25    16    17    1
    26    17    18    2
    27    18    19    1
    28    19    20    2
    29    19    21    1
    30    21    22    1
    31    22    23    2
    32     8     1    1
    33    23    14    1
    34     8     2    1
    35    22    17    1
    36    33    26   ar
    37    12    13    1
@<TRIPOS>MOLECULE
*****
 33 37 0 0 0
SMALL
GASTEIGER

@<TRIPOS>ATOM
      1 C         143.8548  138.7516  161.9515 C.3     1  UNL1        0.0230
      2 C         143.7721  139.3768  160.5905 C.3     1  UNL1        0.0233
      3 C         143.5540  139.7308  159.1493 C.3     1  UNL1        0.0935
      4 N         142.8890  138.5641  158.4809 N.am    1  UNL1       -0.2795
      5 C         142.4875  138.4861  157.0378 C.2     1  UNL1        0.2260
      6 O         142.7458  139.6470  156.1236 O.2     1  UNL1       -0.2749
      7 C         142.6962  137.4891  159.5091 C.3     1  UNL1        0.0935
      8 C         143.2419  137.9914  160.8129 C.3     1  UNL1        0.0233
      9 C         144.2563  138.8296  163.3946 C.3     1  UNL1        0.0898
     10 O         144.0287  138.0961  166.2947 O.2     1  UNL1       -0.2702
     11 C         143.3869  139.3530  165.7863 C.2     1  UNL1        0.2456
     12 N         143.5007  139.7197  164.3364 N.am    1  UNL1       -0.3009
     13 H         143.0795  140.5447  164.0028 H       1  UNL1        0.1497
     14 C         142.6313  140.2431  166.7281 C.2     1  UNL1        0.0525
     15 C         141.8886  141.4347  166.2005 C.2     1  UNL1       -0.0153
     16 C         141.1331  142.3248  167.1423 C.3     1  UNL1        0.0726
     17 C         141.1202  142.0232  168.6116 C.2     1  UNL1        0.0933
     18 N         140.4687  142.7146  169.7724 N.am    1  UNL1       -0.1431
     19 C         140.8088  141.9502  171.0175 C.2     1  UNL1        0.4298
     20 O         140.3651  142.2900  172.4095 O.2     1  UNL1       -0.2238
     21 O         141.6704  140.7864  170.6260 O.3     1  UNL1       -0.4079
     22 C         141.8629  140.8315  169.1391 C.2     1  UNL1        0.1618
     23 C         142.6184  139.9415  168.1974 C.2     1  UNL1        0.0429
     24 C         141.8275  137.2473  156.5088 C.3     1  UNL1        0.0899
     25 C         142.5741  136.3395  155.5768 C.3     1  UNL1        0.0360
     26 C         142.7365  134.8871  155.9144 C.ar    1  UNL1       -0.0200
     27 C         141.8082  133.8703  155.3190 C.ar    1  UNL1        0.0072
     28 C         141.9706  132.4178  155.6567 C.ar    1  UNL1        0.0582
     29 CL        141.0425  131.4010  155.0612 Cl      1  UNL1       -0.0822
     30 C         143.0613  131.9822  156.5898 C.ar    1  UNL1        0.0228
     31 C         143.9895  132.9990  157.1853 C.ar    1  UNL1        0.0582
     32 CL        145.0802  132.5634  158.1184 Cl      1  UNL1       -0.0822
     33 C         143.8271  134.4514  156.8476 C.ar    1  UNL1        0.0072
@<TRIPOS>BOND
     1    10    11    2
     2    11    12   am
     3    12     9    1
     4     1     9    1
     5     1     2    1
     6     2     3    1
     7     3     4    1
     8     4     5   am
     9     5     6    2
    10     5    24    1
    11    24    25    1
    12    25    26    1
    13    26    27   ar
    14    27    28   ar
    15    28    29    1
    16    28    30   ar
    17    30    31   ar
    18    31    32    1
    19    31    33   ar
    20     4     7    1
    21     8     7    1
    22    11    14    1
    23    14    15    2
    24    15    16    1
    25    16    17    1
    26    17    18    2
    27    18    19    1
    28    19    20    2
    29    19    21    1
    30    21    22    1
    31    22    23    2
    32     8     1    1
    33    23    14    1
    34     8     2    1
    35    22    17    1
    36    33    26   ar
    37    12    13    1
@<TRIPOS>MOLECULE
*****
 33 37 0 0 0
SMALL
GASTEIGER

@<TRIPOS>ATOM
      1 C         142.8590  138.2229  159.2460 C.3     1  UNL1        0.0230
      2 C         143.6515  139.1175  160.1525 C.3     1  UNL1        0.0233
      3 C         144.3261  139.8310  161.2864 C.3     1  UNL1        0.0935
      4 N         143.9281  139.1523  162.5635 N.am    1  UNL1       -0.2795
      5 C         144.3727  139.5387  163.9430 C.2     1  UNL1        0.2260
      6 O         145.3007  140.7017  164.1337 O.2     1  UNL1       -0.2749
      7 C         143.0076  138.0193  162.2189 C.3     1  UNL1        0.0935
      8 C         142.8366  137.9978  160.7288 C.3     1  UNL1        0.0233
      9 C         142.4145  137.8365  157.8665 C.3     1  UNL1        0.0898
     10 O         141.3543  136.9862  155.1920 O.2     1  UNL1       -0.2702
     11 C         142.2266  136.0570  155.9828 C.2     1  UNL1        0.2456
     12 N         142.7567  136.4821  157.3201 N.am    1  UNL1       -0.3009
     13 H         143.3293  135.8722  157.8391 H       1  UNL1        0.1497
     14 C         142.5689  134.7026  155.4364 C.2     1  UNL1        0.0525
     15 C         141.9883  134.2529  154.1285 C.2     1  UNL1       -0.0153
     16 C         142.3305  132.8985  153.5822 C.3     1  UNL1        0.0726
     17 C         143.2534  131.9939  154.3437 C.2     1  UNL1        0.0933
     18 N         143.7686  130.6144  154.0576 N.am    1  UNL1       -0.1431
     19 C         144.6677  130.2116  155.1887 C.2     1  UNL1        0.4298
     20 O         145.3981  128.9074  155.3130 O.2     1  UNL1       -0.2238
     21 O         144.7081  131.3421  156.1739 O.3     1  UNL1       -0.4079
     22 C         143.8340  132.4436  155.6516 C.2     1  UNL1        0.1618
     23 C         143.4917  133.7979  156.1979 C.2     1  UNL1        0.0429
     24 C         143.8892  138.7622  165.1318 C.3     1  UNL1        0.0899
     25 C         143.3091  139.4827  166.3127 C.3     1  UNL1        0.0360
     26 C         141.8273  139.4698  166.5452 C.ar    1  UNL1       -0.0200
     27 C         140.9054  138.9546  165.4799 C.ar    1  UNL1        0.0072
     28 C         139.4236  138.9418  165.7125 C.ar    1  UNL1        0.0582
     29 CL        138.5017  138.4266  164.6472 Cl      1  UNL1       -0.0822
     30 C         138.8636  139.4441  167.0103 C.ar    1  UNL1        0.0228
     31 C         139.7855  139.9593  168.0755 C.ar    1  UNL1        0.0582
     32 CL        139.2256  140.4616  169.3733 Cl      1  UNL1       -0.0822
     33 C         141.2673  139.9721  167.8430 C.ar    1  UNL1        0.0072
@<TRIPOS>BOND
     1    10    11    2
     2    11    12   am
     3    12     9    1
     4     1     9    1
     5     1     2    1
     6     2     3    1
     7     3     4    1
     8     4     5   am
     9     5     6    2
    10     5    24    1
    11    24    25    1
    12    25    26    1
    13    26    27   ar
    14    27    28   ar
    15    28    29    1
    16    28    30   ar
    17    30    31   ar
    18    31    32    1
    19    31    33   ar
    20     4     7    1
    21     8     7    1
    22    11    14    1
    23    14    15    2
    24    15    16    1
    25    16    17    1
    26    17    18    2
    27    18    19    1
    28    19    20    2
    29    19    21    1
    30    21    22    1
    31    22    23    2
    32     8     1    1
    33    23    14    1
    34     8     2    1
    35    22    17    1
    36    33    26   ar
    37    12    13    1
@<TRIPOS>MOLECULE
*****
 33 37 0 0 0
SMALL
GASTEIGER

@<TRIPOS>ATOM
      1 C         142.6439  138.6031  159.1485 C.3     1  UNL1        0.0230
      2 C         143.5072  139.4368  160.0483 C.3     1  UNL1        0.0233
      3 C         144.2603  140.0823  161.1735 C.3     1  UNL1        0.0935
      4 N         143.9133  139.3569  162.4398 N.am    1  UNL1       -0.2795
      5 C         144.4412  139.6704  163.8084 C.2     1  UNL1        0.2260
      6 O         145.4087  140.8008  163.9984 O.2     1  UNL1       -0.2749
      7 C         142.9459  138.2631  162.0972 C.3     1  UNL1        0.0935
      8 C         142.6949  138.3124  160.6191 C.3     1  UNL1        0.0233
      9 C         142.1160  138.2897  157.7799 C.3     1  UNL1        0.0898
     10 O         144.1136  136.7299  156.1747 O.2     1  UNL1       -0.2702
     11 C         142.8234  136.0895  156.5930 C.2     1  UNL1        0.2456
     12 N         141.8246  136.8693  157.3956 N.am    1  UNL1       -0.3009
     13 H         140.9777  136.4489  157.6701 H       1  UNL1        0.1497
     14 C         142.5319  134.6691  156.2086 C.2     1  UNL1        0.0525
     15 C         141.6433  134.3766  155.0362 C.2     1  UNL1       -0.0153
     16 C         141.3519  132.9563  154.6519 C.3     1  UNL1        0.0726
     17 C         141.9491  131.8284  155.4401 C.2     1  UNL1        0.0933
     18 N         141.8424  130.3388  155.2995 N.am    1  UNL1       -0.1431
     19 C         142.6652  129.7107  156.3851 C.2     1  UNL1        0.4298
     20 O         142.8418  128.2394  156.6183 O.2     1  UNL1       -0.2238
     21 O         143.2803  130.8121  157.1966 O.3     1  UNL1       -0.4079
     22 C         142.8378  132.1209  156.6125 C.2     1  UNL1        0.1618
     23 C         143.1292  133.5412  156.9968 C.2     1  UNL1        0.0429
     24 C         144.0016  138.8534  164.9871 C.3     1  UNL1        0.0899
     25 C         143.3765  139.5249  166.1739 C.3     1  UNL1        0.0360
     26 C         141.8930  139.4507  166.3824 C.ar    1  UNL1       -0.0200
     27 C         141.2856  139.9838  167.6462 C.ar    1  UNL1        0.0072
     28 C         139.8021  139.9096  167.8547 C.ar    1  UNL1        0.0582
     29 CL        139.1947  140.4427  169.1184 Cl      1  UNL1       -0.0822
     30 C         138.9258  139.3023  166.7995 C.ar    1  UNL1        0.0228
     31 C         139.5331  138.7692  165.5358 C.ar    1  UNL1        0.0582
     32 CL        138.6569  138.1618  164.4806 Cl      1  UNL1       -0.0822
     33 C         141.0167  138.8434  165.3273 C.ar    1  UNL1        0.0072
@<TRIPOS>BOND
     1    10    11    2
     2    11    12   am
     3    12     9    1
     4     1     9    1
     5     1     2    1
     6     2     3    1
     7     3     4    1
     8     4     5   am
     9     5     6    2
    10     5    24    1
    11    24    25    1
    12    25    26    1
    13    26    27   ar
    14    27    28   ar
    15    28    29    1
    16    28    30   ar
    17    30    31   ar
    18    31    32    1
    19    31    33   ar
    20     4     7    1
    21     8     7    1
    22    11    14    1
    23    14    15    2
    24    15    16    1
    25    16    17    1
    26    17    18    2
    27    18    19    1
    28    19    20    2
    29    19    21    1
    30    21    22    1
    31    22    23    2
    32     8     1    1
    33    23    14    1
    34     8     2    1
    35    22    17    1
    36    33    26   ar
    37    12    13    1
@<TRIPOS>MOLECULE
*****
 33 37 0 0 0
SMALL
GASTEIGER

@<TRIPOS>ATOM
      1 C         140.4845  144.5179  159.0643 C.3     1  UNL1        0.0230
      2 C         140.2219  145.1231  160.4114 C.3     1  UNL1        0.0233
      3 C         139.8696  145.4377  161.8351 C.3     1  UNL1        0.0935
      4 N         139.3861  144.1742  162.4831 N.am    1  UNL1       -0.2795
      5 C         138.9293  144.0313  163.9047 C.2     1  UNL1        0.2260
      6 O         138.9312  145.2225  164.8164 O.2     1  UNL1       -0.2749
      7 C         139.4395  143.0787  161.4599 C.3     1  UNL1        0.0935
      8 C         139.9561  143.6652  160.1795 C.3     1  UNL1        0.0233
      9 C         140.9413  144.6608  157.6428 C.3     1  UNL1        0.0898
     10 O         138.7023  145.2115  155.7234 O.2     1  UNL1       -0.2702
     11 C         139.7325  146.2669  155.9968 C.2     1  UNL1        0.2456
     12 N         140.8520  145.9916  156.9564 N.am    1  UNL1       -0.3009
     13 H         141.5281  146.6844  157.1359 H       1  UNL1        0.1497
     14 C         139.6432  147.5978  155.3105 C.2     1  UNL1        0.0525
     15 C         140.2584  147.7856  153.9554 C.2     1  UNL1       -0.0153
     16 C         140.1690  149.1164  153.2692 C.3     1  UNL1        0.0726
     17 C         139.4645  150.2593  153.9380 C.2     1  UNL1        0.0933
     18 N         139.2187  151.6758  153.5096 N.am    1  UNL1       -0.1431
     19 C         138.4515  152.3632  154.5999 C.2     1  UNL1        0.4298
     20 O         137.9931  153.7915  154.5898 O.2     1  UNL1       -0.2238
     21 O         138.2232  151.3717  155.7021 O.3     1  UNL1       -0.4079
     22 C         138.8492  150.0715  155.2930 C.2     1  UNL1        0.1618
     23 C         138.9386  148.7407  155.9792 C.2     1  UNL1        0.0429
     24 C         138.4708  142.6973  164.4146 C.3     1  UNL1        0.0899
     25 C         139.4015  141.8433  165.2237 C.3     1  UNL1        0.0360
     26 C         139.2570  140.3504  165.2047 C.ar    1  UNL1       -0.0200
     27 C         138.3229  139.6750  166.1646 C.ar    1  UNL1        0.0072
     28 C         138.1784  138.1821  166.1456 C.ar    1  UNL1        0.0582
     29 CL        137.2444  137.5067  167.1055 Cl      1  UNL1       -0.0822
     30 C         138.9680  137.3646  165.1666 C.ar    1  UNL1        0.0228
     31 C         139.9020  138.0400  164.2068 C.ar    1  UNL1        0.0582
     32 CL        140.6916  137.2225  163.2278 Cl      1  UNL1       -0.0822
     33 C         140.0465  139.5329  164.2258 C.ar    1  UNL1        0.0072
@<TRIPOS>BOND
     1    10    11    2
     2    11    12   am
     3    12     9    1
     4     1     9    1
     5     1     2    1
     6     2     3    1
     7     3     4    1
     8     4     5   am
     9     5     6    2
    10     5    24    1
    11    24    25    1
    12    25    26    1
    13    26    27   ar
    14    27    28   ar
    15    28    29    1
    16    28    30   ar
    17    30    31   ar
    18    31    32    1
    19    31    33   ar
    20     4     7    1
    21     8     7    1
    22    11    14    1
    23    14    15    2
    24    15    16    1
    25    16    17    1
    26    17    18    2
    27    18    19    1
    28    19    20    2
    29    19    21    1
    30    21    22    1
    31    22    23    2
    32     8     1    1
    33    23    14    1
    34     8     2    1
    35    22    17    1
    36    33    26   ar
    37    12    13    1
