@<TRIPOS>MOLECULE
*****
 29 32 0 0 0
SMALL
GASTEIGER

@<TRIPOS>ATOM
      1 C         140.4462  139.3403  163.3875 C.ar    1  UNL1       -0.0003
      2 C         139.1974  139.6449  162.6145 C.ar    1  UNL1        0.0001
      3 C         139.1469  139.3847  161.1382 C.ar    1  UNL1        0.0042
      4 C         140.3453  138.8198  160.4348 C.ar    1  UNL1        0.0497
      5 C         141.5941  138.5152  161.2078 C.ar    1  UNL1       -0.0161
      6 C         141.6446  138.7754  162.6841 C.ar    1  UNL1       -0.0041
      7 C         142.7925  137.9503  160.5044 C.3     1  UNL1        0.0480
      8 C         142.7421  137.6900  159.0280 C.3     1  UNL1        0.0984
      9 N         141.4932  137.9947  158.2550 N.am    1  UNL1       -0.2743
     10 C         140.2948  138.5596  158.9583 C.2     1  UNL1        0.2488
     11 O         139.0460  138.8642  158.1854 O.2     1  UNL1       -0.2699
     12 C         140.5977  140.1210  167.8168 C.ar    1  UNL1        0.0536
     13 C         139.2746  139.9643  167.1276 C.ar    1  UNL1        0.0045
     14 C         139.2241  139.7041  165.6512 C.ar    1  UNL1        0.0001
     15 C         140.4967  139.6005  164.8639 C.ar    1  UNL1       -0.0000
     16 C         141.8198  139.7572  165.5530 C.ar    1  UNL1        0.0001
     17 C         141.8704  140.0174  167.0294 C.ar    1  UNL1        0.0045
     18 C         140.7148  142.0509  171.2825 C.3     1  UNL1        0.1152
     19 N         140.6642  141.7906  169.8061 N.am    1  UNL1       -0.2726
     20 C         140.6296  142.9399  168.8427 C.3     1  UNL1        0.1152
     21 C         140.6483  140.3812  169.2931 C.2     1  UNL1        0.2491
     22 O         140.6829  139.2320  170.2565 O.2     1  UNL1       -0.2699
     23 C         141.4427  137.7344  156.7786 C.3     1  UNL1        0.1110
     24 C         142.5142  136.9132  156.1247 C.3     1  UNL1        0.0939
     25 N         142.4286  135.4157  156.1447 N.3     1  UNL1       -0.2712
     26 C         143.2412  134.4977  157.0089 C.3     1  UNL1        0.0722
     27 C         142.8302  133.0880  156.7024 C.3     1  UNL1        0.0188
     28 C         141.7636  133.1349  155.6487 C.3     1  UNL1        0.0188
     29 C         141.5154  134.5735  155.3041 C.3     1  UNL1        0.0722
@<TRIPOS>BOND
     1    18    19    1
     2    19    20    1
     3    19    21   am
     4    21    22    2
     5    21    12    1
     6    12    13   ar
     7    13    14   ar
     8    14    15   ar
     9    15     1    1
    10     1     2   ar
    11     2     3   ar
    12     3     4   ar
    13     4     5   ar
    14     5     6   ar
    15     5     7    1
    16     7     8    1
    17     8     9    1
    18     9    23    1
    19    23    24    1
    20    24    25    1
    21    25    26    1
    22    26    27    1
    23    27    28    1
    24    28    29    1
    25     9    10   am
    26    10    11    2
    27    15    16   ar
    28    16    17   ar
    29    17    12   ar
    30     6     1   ar
    31    29    25    1
    32    10     4    1
@<TRIPOS>MOLECULE
*****
 29 32 0 0 0
SMALL
GASTEIGER

@<TRIPOS>ATOM
      1 C         143.2033  140.1385  163.1301 C.ar    1  UNL1       -0.0003
      2 C         142.9009  138.8857  162.3626 C.ar    1  UNL1        0.0001
      3 C         143.1348  138.8385  160.8818 C.ar    1  UNL1        0.0042
      4 C         143.6710  140.0442  160.1684 C.ar    1  UNL1        0.0497
      5 C         143.9734  141.2969  160.9359 C.ar    1  UNL1       -0.0161
      6 C         143.7395  141.3441  162.4167 C.ar    1  UNL1       -0.0041
      7 C         144.5096  142.5025  160.2225 C.3     1  UNL1        0.0480
      8 C         144.7435  142.4554  158.7416 C.3     1  UNL1        0.0984
      9 N         144.4412  141.2026  157.9740 N.am    1  UNL1       -0.2743
     10 C         143.9049  139.9969  158.6874 C.2     1  UNL1        0.2488
     11 O         143.6025  138.7442  157.9199 O.2     1  UNL1       -0.2699
     12 C         142.5016  140.2800  167.5729 C.ar    1  UNL1        0.0536
     13 C         142.3549  141.5258  166.7504 C.ar    1  UNL1        0.0045
     14 C         142.5888  141.4786  165.2694 C.ar    1  UNL1        0.0001
     15 C         142.9694  140.1857  164.6111 C.ar    1  UNL1       -0.0000
     16 C         143.1161  138.9399  165.4336 C.ar    1  UNL1        0.0001
     17 C         142.8822  138.9871  166.9145 C.ar    1  UNL1        0.0045
     18 C         140.6368  140.3021  171.0760 C.3     1  UNL1        0.1152
     19 N         140.8707  140.2550  169.5951 N.am    1  UNL1       -0.2726
     20 C         139.7076  140.1356  168.6555 C.3     1  UNL1        0.1152
     21 C         142.2678  140.3272  169.0538 C.2     1  UNL1        0.2491
     22 O         143.4309  140.4466  169.9934 O.2     1  UNL1       -0.2699
     23 C         144.6750  141.1554  156.4932 C.3     1  UNL1        0.1110
     24 C         145.3579  142.3000  155.8049 C.3     1  UNL1        0.0939
     25 N         146.7469  142.1294  155.2648 N.3     1  UNL1       -0.2712
     26 C         148.0125  142.1332  156.0700 C.3     1  UNL1        0.0722
     27 C         149.1620  141.9313  155.1277 C.3     1  UNL1        0.0188
     28 C         148.6067  141.8028  153.7401 C.3     1  UNL1        0.0188
     29 C         147.1142  141.9252  153.8249 C.3     1  UNL1        0.0722
@<TRIPOS>BOND
     1    18    19    1
     2    19    20    1
     3    19    21   am
     4    21    22    2
     5    21    12    1
     6    12    13   ar
     7    13    14   ar
     8    14    15   ar
     9    15     1    1
    10     1     2   ar
    11     2     3   ar
    12     3     4   ar
    13     4     5   ar
    14     5     6   ar
    15     5     7    1
    16     7     8    1
    17     8     9    1
    18     9    23    1
    19    23    24    1
    20    24    25    1
    21    25    26    1
    22    26    27    1
    23    27    28    1
    24    28    29    1
    25     9    10   am
    26    10    11    2
    27    15    16   ar
    28    16    17   ar
    29    17    12   ar
    30     6     1   ar
    31    29    25    1
    32    10     4    1
@<TRIPOS>MOLECULE
*****
 29 32 0 0 0
SMALL
GASTEIGER

@<TRIPOS>ATOM
      1 C         141.8329  139.3995  163.3978 C.ar    1  UNL1       -0.0003
      2 C         143.1969  139.4388  162.7751 C.ar    1  UNL1        0.0001
      3 C         143.3572  139.1924  161.3042 C.ar    1  UNL1        0.0042
      4 C         142.1535  138.9065  160.4560 C.ar    1  UNL1        0.0497
      5 C         140.7895  138.8672  161.0787 C.ar    1  UNL1       -0.0161
      6 C         140.6291  139.1136  162.5496 C.ar    1  UNL1       -0.0041
      7 C         139.5858  138.5813  160.2306 C.3     1  UNL1        0.0480
      8 C         139.7461  138.3349  158.7597 C.3     1  UNL1        0.0984
      9 N         141.1102  138.3742  158.1369 N.am    1  UNL1       -0.2743
     10 C         142.3139  138.6601  158.9851 C.2     1  UNL1        0.2488
     11 O         143.6779  138.6994  158.3624 O.2     1  UNL1       -0.2699
     12 C         141.3517  140.1389  167.8105 C.ar    1  UNL1        0.0536
     13 C         142.5338  139.3668  167.3040 C.ar    1  UNL1        0.0045
     14 C         142.6942  139.1204  165.8330 C.ar    1  UNL1        0.0001
     15 C         141.6725  139.6459  164.8687 C.ar    1  UNL1       -0.0000
     16 C         140.4904  140.4180  165.3753 C.ar    1  UNL1        0.0001
     17 C         140.3299  140.6644  166.8461 C.ar    1  UNL1        0.0045
     18 C         141.6979  141.8133  171.3919 C.3     1  UNL1        0.1152
     19 N         141.8583  141.5668  169.9209 N.am    1  UNL1       -0.2726
     20 C         142.6859  142.5018  169.0897 C.3     1  UNL1        0.1152
     21 C         141.1912  140.3854  169.2814 C.2     1  UNL1        0.2491
     22 O         140.3637  139.4504  170.1127 O.2     1  UNL1       -0.2699
     23 C         141.2705  138.1278  156.6661 C.3     1  UNL1        0.1110
     24 C         140.8284  136.8235  156.0716 C.3     1  UNL1        0.0939
     25 N         141.7470  135.6379  156.0973 N.3     1  UNL1       -0.2712
     26 C         143.0227  135.5278  156.8787 C.3     1  UNL1        0.0722
     27 C         143.6153  134.1761  156.6104 C.3     1  UNL1        0.0188
     28 C         142.7058  133.4509  155.6633 C.3     1  UNL1        0.0188
     29 C         141.5512  134.3544  155.3462 C.3     1  UNL1        0.0722
@<TRIPOS>BOND
     1    18    19    1
     2    19    20    1
     3    19    21   am
     4    21    22    2
     5    21    12    1
     6    12    13   ar
     7    13    14   ar
     8    14    15   ar
     9    15     1    1
    10     1     2   ar
    11     2     3   ar
    12     3     4   ar
    13     4     5   ar
    14     5     6   ar
    15     5     7    1
    16     7     8    1
    17     8     9    1
    18     9    23    1
    19    23    24    1
    20    24    25    1
    21    25    26    1
    22    26    27    1
    23    27    28    1
    24    28    29    1
    25     9    10   am
    26    10    11    2
    27    15    16   ar
    28    16    17   ar
    29    17    12   ar
    30     6     1   ar
    31    29    25    1
    32    10     4    1
@<TRIPOS>MOLECULE
*****
 29 32 0 0 0
SMALL
GASTEIGER

@<TRIPOS>ATOM
      1 C         139.5245  142.2108  163.4917 C.ar    1  UNL1       -0.0003
      2 C         138.6196  141.3123  162.7019 C.ar    1  UNL1        0.0001
      3 C         138.4348  141.5394  161.2308 C.ar    1  UNL1        0.0042
      4 C         139.1550  142.6651  160.5495 C.ar    1  UNL1        0.0497
      5 C         140.0599  143.5636  161.3392 C.ar    1  UNL1       -0.0161
      6 C         140.2446  143.3365  162.8103 C.ar    1  UNL1       -0.0041
      7 C         140.7800  144.6893  160.6579 C.3     1  UNL1        0.0480
      8 C         140.5953  144.9165  159.1868 C.3     1  UNL1        0.0984
      9 N         139.6903  144.0179  158.3969 N.am    1  UNL1       -0.2743
     10 C         138.9702  142.8923  159.0783 C.2     1  UNL1        0.2488
     11 O         138.0653  141.9937  158.2885 O.2     1  UNL1       -0.2699
     12 C         140.0788  141.5294  167.9052 C.ar    1  UNL1        0.0536
     13 C         140.3365  142.8852  167.3175 C.ar    1  UNL1        0.0045
     14 C         140.1517  143.1123  165.8463 C.ar    1  UNL1        0.0001
     15 C         139.7093  141.9837  164.9629 C.ar    1  UNL1       -0.0000
     16 C         139.4517  140.6279  165.5506 C.ar    1  UNL1        0.0001
     17 C         139.6364  140.4007  167.0217 C.ar    1  UNL1        0.0045
     18 C         141.8087  140.7532  171.3916 C.3     1  UNL1        0.1152
     19 N         141.6239  140.9804  169.9204 N.am    1  UNL1       -0.2726
     20 C         142.7994  140.8858  168.9934 C.3     1  UNL1        0.1152
     21 C         140.2636  141.3022  169.3763 C.2     1  UNL1        0.2491
     22 O         139.0881  141.3968  170.3033 O.2     1  UNL1       -0.2699
     23 C         139.5056  144.2451  156.9258 C.3     1  UNL1        0.1110
     24 C         140.4750  145.1069  156.1724 C.3     1  UNL1        0.0939
     25 N         140.0293  146.4263  155.6151 N.3     1  UNL1       -0.2712
     26 C         140.4766  147.0315  154.3175 C.3     1  UNL1        0.0722
     27 C         139.7820  148.3515  154.1579 C.3     1  UNL1        0.0188
     28 C         138.9054  148.5619  155.3569 C.3     1  UNL1        0.0188
     29 C         139.0583  147.3721  156.2574 C.3     1  UNL1        0.0722
@<TRIPOS>BOND
     1    18    19    1
     2    19    20    1
     3    19    21   am
     4    21    22    2
     5    21    12    1
     6    12    13   ar
     7    13    14   ar
     8    14    15   ar
     9    15     1    1
    10     1     2   ar
    11     2     3   ar
    12     3     4   ar
    13     4     5   ar
    14     5     6   ar
    15     5     7    1
    16     7     8    1
    17     8     9    1
    18     9    23    1
    19    23    24    1
    20    24    25    1
    21    25    26    1
    22    26    27    1
    23    27    28    1
    24    28    29    1
    25     9    10   am
    26    10    11    2
    27    15    16   ar
    28    16    17   ar
    29    17    12   ar
    30     6     1   ar
    31    29    25    1
    32    10     4    1
@<TRIPOS>MOLECULE
*****
 29 32 0 0 0
SMALL
GASTEIGER

@<TRIPOS>ATOM
      1 C         141.9598  143.2694  163.2703 C.ar    1  UNL1       -0.0003
      2 C         143.0031  142.5249  162.4912 C.ar    1  UNL1        0.0001
      3 C         143.1388  142.7495  161.0144 C.ar    1  UNL1        0.0042
      4 C         142.2311  143.7186  160.3166 C.ar    1  UNL1        0.0497
      5 C         141.1877  144.4632  161.0957 C.ar    1  UNL1       -0.0161
      6 C         141.0521  144.2386  162.5725 C.ar    1  UNL1       -0.0041
      7 C         140.2801  145.4323  160.3979 C.3     1  UNL1        0.0480
      8 C         140.4157  145.6569  158.9211 C.3     1  UNL1        0.0984
      9 N         141.4592  144.9124  158.1419 N.am    1  UNL1       -0.2743
     10 C         142.3668  143.9432  158.8397 C.2     1  UNL1        0.2488
     11 O         143.4102  143.1987  158.0606 O.2     1  UNL1       -0.2699
     12 C         141.5525  142.5957  167.7010 C.ar    1  UNL1        0.0536
     13 C         142.8860  142.4244  167.0358 C.ar    1  UNL1        0.0045
     14 C         143.0217  142.6490  165.5588 C.ar    1  UNL1        0.0001
     15 C         141.8240  143.0448  164.7472 C.ar    1  UNL1       -0.0000
     16 C         140.4906  143.2161  165.4124 C.ar    1  UNL1        0.0001
     17 C         140.3548  142.9915  166.8893 C.ar    1  UNL1        0.0045
     18 C         140.7369  140.8466  171.1687 C.3     1  UNL1        0.1152
     19 N         140.8727  141.0712  169.6918 N.am    1  UNL1       -0.2726
     20 C         140.4644  139.9959  168.7290 C.3     1  UNL1        0.1152
     21 C         141.4168  142.3711  169.1778 C.2     1  UNL1        0.2491
     22 O         141.8251  143.4464  170.1406 O.2     1  UNL1       -0.2699
     23 C         141.5948  145.1370  156.6651 C.3     1  UNL1        0.1110
     24 C         140.3699  145.3147  155.8178 C.3     1  UNL1        0.0939
     25 N         139.9782  146.6827  155.3432 N.3     1  UNL1       -0.2712
     26 C         139.0265  147.6157  156.0315 C.3     1  UNL1        0.0722
     27 C         138.9296  148.8676  155.2107 C.3     1  UNL1        0.0188
     28 C         139.8215  148.7082  154.0152 C.3     1  UNL1        0.0188
     29 C         140.4696  147.3579  154.0971 C.3     1  UNL1        0.0722
@<TRIPOS>BOND
     1    18    19    1
     2    19    20    1
     3    19    21   am
     4    21    22    2
     5    21    12    1
     6    12    13   ar
     7    13    14   ar
     8    14    15   ar
     9    15     1    1
    10     1     2   ar
    11     2     3   ar
    12     3     4   ar
    13     4     5   ar
    14     5     6   ar
    15     5     7    1
    16     7     8    1
    17     8     9    1
    18     9    23    1
    19    23    24    1
    20    24    25    1
    21    25    26    1
    22    26    27    1
    23    27    28    1
    24    28    29    1
    25     9    10   am
    26    10    11    2
    27    15    16   ar
    28    16    17   ar
    29    17    12   ar
    30     6     1   ar
    31    29    25    1
    32    10     4    1
@<TRIPOS>MOLECULE
*****
 29 32 0 0 0
SMALL
GASTEIGER

@<TRIPOS>ATOM
      1 C         141.9530  143.6851  162.9233 C.ar    1  UNL1       -0.0003
      2 C         140.8989  144.6902  162.5647 C.ar    1  UNL1        0.0001
      3 C         140.7157  145.1075  161.1356 C.ar    1  UNL1        0.0042
      4 C         141.5868  144.5197  160.0652 C.ar    1  UNL1        0.0497
      5 C         142.6409  143.5147  160.4238 C.ar    1  UNL1       -0.0161
      6 C         142.8240  143.0974  161.8528 C.ar    1  UNL1       -0.0041
      7 C         143.5119  142.9270  159.3533 C.3     1  UNL1        0.0480
      8 C         143.3288  143.3443  157.9243 C.3     1  UNL1        0.0984
      9 N         142.2746  144.3493  157.5656 N.am    1  UNL1       -0.2743
     10 C         141.4036  144.9371  158.6360 C.2     1  UNL1        0.2488
     11 O         140.3495  145.9421  158.2774 O.2     1  UNL1       -0.2699
     12 C         142.5025  142.4331  167.2106 C.ar    1  UNL1        0.0536
     13 C         141.1217  142.6150  166.6535 C.ar    1  UNL1        0.0045
     14 C         140.9386  143.0324  165.2244 C.ar    1  UNL1        0.0001
     15 C         142.1362  143.2678  164.3524 C.ar    1  UNL1       -0.0000
     16 C         143.5169  143.0859  164.9095 C.ar    1  UNL1        0.0001
     17 C         143.7001  142.6686  166.3386 C.ar    1  UNL1        0.0045
     18 C         142.9151  140.1420  170.4247 C.3     1  UNL1        0.1152
     19 N         142.7319  140.5594  168.9956 N.am    1  UNL1       -0.2726
     20 C         142.5948  139.5203  167.9225 C.3     1  UNL1        0.1152
     21 C         142.6857  142.0158  168.6397 C.2     1  UNL1        0.2491
     22 O         142.8228  143.0549  169.7128 O.2     1  UNL1       -0.2699
     23 C         142.0915  144.7666  156.1365 C.3     1  UNL1        0.1110
     24 C         141.2197  143.9557  155.2242 C.3     1  UNL1        0.0939
     25 N         139.7318  144.1451  155.2447 N.3     1  UNL1       -0.2712
     26 C         138.7306  143.1977  155.8364 C.3     1  UNL1        0.0722
     27 C         137.3639  143.7821  155.6345 C.3     1  UNL1        0.0188
     28 C         137.5205  145.0906  154.9180 C.3     1  UNL1        0.0188
     29 C         138.9839  145.3149  154.6771 C.3     1  UNL1        0.0722
@<TRIPOS>BOND
     1    18    19    1
     2    19    20    1
     3    19    21   am
     4    21    22    2
     5    21    12    1
     6    12    13   ar
     7    13    14   ar
     8    14    15   ar
     9    15     1    1
    10     1     2   ar
    11     2     3   ar
    12     3     4   ar
    13     4     5   ar
    14     5     6   ar
    15     5     7    1
    16     7     8    1
    17     8     9    1
    18     9    23    1
    19    23    24    1
    20    24    25    1
    21    25    26    1
    22    26    27    1
    23    27    28    1
    24    28    29    1
    25     9    10   am
    26    10    11    2
    27    15    16   ar
    28    16    17   ar
    29    17    12   ar
    30     6     1   ar
    31    29    25    1
    32    10     4    1
@<TRIPOS>MOLECULE
*****
 29 32 0 0 0
SMALL
GASTEIGER

@<TRIPOS>ATOM
      1 C         139.3097  140.2758  163.4833 C.ar    1  UNL1       -0.0003
      2 C         138.0476  140.7418  162.8200 C.ar    1  UNL1        0.0001
      3 C         137.8547  140.5362  161.3468 C.ar    1  UNL1        0.0042
      4 C         138.9238  139.8646  160.5368 C.ar    1  UNL1        0.0497
      5 C         140.1859  139.3987  161.2001 C.ar    1  UNL1       -0.0161
      6 C         140.3788  139.6043  162.6733 C.ar    1  UNL1       -0.0041
      7 C         141.2550  138.7271  160.3902 C.3     1  UNL1        0.0480
      8 C         141.0620  138.5215  158.9169 C.3     1  UNL1        0.0984
      9 N         139.7999  138.9875  158.2536 N.am    1  UNL1       -0.2743
     10 C         138.7308  139.6590  159.0635 C.2     1  UNL1        0.2488
     11 O         137.4687  140.1250  158.4002 O.2     1  UNL1       -0.2699
     12 C         139.8888  140.8926  167.9031 C.ar    1  UNL1        0.0536
     13 C         139.2785  139.6192  167.3972 C.ar    1  UNL1        0.0045
     14 C         139.0854  139.4136  165.9239 C.ar    1  UNL1        0.0001
     15 C         139.5027  140.4814  164.9566 C.ar    1  UNL1       -0.0000
     16 C         140.1131  141.7548  165.4625 C.ar    1  UNL1        0.0001
     17 C         140.3061  141.9604  166.9357 C.ar    1  UNL1        0.0045
     18 C         141.6386  141.1525  171.4556 C.3     1  UNL1        0.1152
     19 N         141.4455  140.9468  169.9823 N.am    1  UNL1       -0.2726
     20 C         142.6162  140.5898  169.1151 C.3     1  UNL1        0.1152
     21 C         140.0818  141.0983  169.3763 C.2     1  UNL1        0.2491
     22 O         138.9111  141.4553  170.2435 O.2     1  UNL1       -0.2699
     23 C         139.6069  138.7819  156.7803 C.3     1  UNL1        0.1110
     24 C         139.4585  137.3945  156.2298 C.3     1  UNL1        0.0939
     25 N         140.5924  136.7597  155.4804 N.3     1  UNL1       -0.2712
     26 C         141.8972  136.3118  156.0695 C.3     1  UNL1        0.0722
     27 C         142.7318  135.7367  154.9636 C.3     1  UNL1        0.0188
     28 C         141.9428  135.8292  153.6912 C.3     1  UNL1        0.0188
     29 C         140.6206  136.4614  154.0107 C.3     1  UNL1        0.0722
@<TRIPOS>BOND
     1    18    19    1
     2    19    20    1
     3    19    21   am
     4    21    22    2
     5    21    12    1
     6    12    13   ar
     7    13    14   ar
     8    14    15   ar
     9    15     1    1
    10     1     2   ar
    11     2     3   ar
    12     3     4   ar
    13     4     5   ar
    14     5     6   ar
    15     5     7    1
    16     7     8    1
    17     8     9    1
    18     9    23    1
    19    23    24    1
    20    24    25    1
    21    25    26    1
    22    26    27    1
    23    27    28    1
    24    28    29    1
    25     9    10   am
    26    10    11    2
    27    15    16   ar
    28    16    17   ar
    29    17    12   ar
    30     6     1   ar
    31    29    25    1
    32    10     4    1
@<TRIPOS>MOLECULE
*****
 29 32 0 0 0
SMALL
GASTEIGER

@<TRIPOS>ATOM
      1 C         140.2824  138.7068  161.6969 C.ar    1  UNL1       -0.0003
      2 C         139.1589  137.8798  162.2480 C.ar    1  UNL1        0.0001
      3 C         138.7797  137.9984  163.6944 C.ar    1  UNL1        0.0042
      4 C         139.5241  138.9441  164.5897 C.ar    1  UNL1        0.0497
      5 C         140.6476  139.7711  164.0387 C.ar    1  UNL1       -0.0161
      6 C         141.0268  139.6525  162.5923 C.ar    1  UNL1       -0.0041
      7 C         141.3920  140.7167  164.9340 C.3     1  UNL1        0.0480
      8 C         141.0128  140.8353  166.3804 C.3     1  UNL1        0.0984
      9 N         139.8893  140.0083  166.9316 N.am    1  UNL1       -0.2743
     10 C         139.1449  139.0626  166.0362 C.2     1  UNL1        0.2488
     11 O         138.0214  138.2356  166.5872 O.2     1  UNL1       -0.2699
     12 C         141.4200  138.3511  157.3576 C.ar    1  UNL1        0.0536
     13 C         139.9745  138.4330  157.7497 C.ar    1  UNL1        0.0045
     14 C         139.5953  138.5516  159.1961 C.ar    1  UNL1        0.0001
     15 C         140.6616  138.5882  160.2504 C.ar    1  UNL1       -0.0000
     16 C         142.1071  138.5063  159.8584 C.ar    1  UNL1        0.0001
     17 C         142.4863  138.3877  158.4120 C.ar    1  UNL1        0.0045
     18 C         142.3522  136.7596  153.8436 C.3     1  UNL1        0.1152
     19 N         141.9730  136.8783  155.2900 N.am    1  UNL1       -0.2726
     20 C         141.7675  135.6426  156.1153 C.3     1  UNL1        0.1152
     21 C         141.7992  138.2325  155.9112 C.2     1  UNL1        0.2491
     22 O         142.0047  139.4681  155.0860 O.2     1  UNL1       -0.2699
     23 C         139.5101  140.1269  168.3780 C.3     1  UNL1        0.1110
     24 C         140.5519  139.9529  169.4431 C.3     1  UNL1        0.0939
     25 N         141.5547  141.0394  169.6960 N.3     1  UNL1       -0.2712
     26 C         143.0388  140.9307  169.5068 C.3     1  UNL1        0.0722
     27 C         143.6509  142.2495  169.8763 C.3     1  UNL1        0.0188
     28 C         142.5451  143.1730  170.2938 C.3     1  UNL1        0.0188
     29 C         141.2496  142.4251  170.1823 C.3     1  UNL1        0.0722
@<TRIPOS>BOND
     1    18    19    1
     2    19    20    1
     3    19    21   am
     4    21    22    2
     5    21    12    1
     6    12    13   ar
     7    13    14   ar
     8    14    15   ar
     9    15     1    1
    10     1     2   ar
    11     2     3   ar
    12     3     4   ar
    13     4     5   ar
    14     5     6   ar
    15     5     7    1
    16     7     8    1
    17     8     9    1
    18     9    23    1
    19    23    24    1
    20    24    25    1
    21    25    26    1
    22    26    27    1
    23    27    28    1
    24    28    29    1
    25     9    10   am
    26    10    11    2
    27    15    16   ar
    28    16    17   ar
    29    17    12   ar
    30     6     1   ar
    31    29    25    1
    32    10     4    1
@<TRIPOS>MOLECULE
*****
 29 32 0 0 0
SMALL
GASTEIGER

@<TRIPOS>ATOM
      1 C         139.4292  142.0825  163.5195 C.ar    1  UNL1       -0.0003
      2 C         139.8333  143.3653  162.8553 C.ar    1  UNL1        0.0001
      3 C         139.6082  143.5514  161.3841 C.ar    1  UNL1        0.0042
      4 C         138.9791  142.4547  160.5769 C.ar    1  UNL1        0.0497
      5 C         138.5750  141.1719  161.2411 C.ar    1  UNL1       -0.0161
      6 C         138.8000  140.9858  162.7124 C.ar    1  UNL1       -0.0041
      7 C         137.9458  140.0752  160.4340 C.3     1  UNL1        0.0480
      8 C         137.7208  140.2613  158.9627 C.3     1  UNL1        0.0984
      9 N         138.1249  141.5442  158.2985 N.am    1  UNL1       -0.2743
     10 C         138.7540  142.6408  159.1056 C.2     1  UNL1        0.2488
     11 O         139.1582  143.9236  158.4415 O.2     1  UNL1       -0.2699
     12 C         140.1042  141.5240  167.9334 C.ar    1  UNL1        0.0536
     13 C         140.4011  142.8465  167.2907 C.ar    1  UNL1        0.0045
     14 C         140.1760  143.0326  165.8194 C.ar    1  UNL1        0.0001
     15 C         139.6542  141.8964  164.9908 C.ar    1  UNL1       -0.0000
     16 C         139.3574  140.5739  165.6335 C.ar    1  UNL1        0.0001
     17 C         139.5824  140.3877  167.1048 C.ar    1  UNL1        0.0045
     18 C         141.9097  140.7577  171.3835 C.3     1  UNL1        0.1152
     19 N         141.6847  140.9439  169.9121 N.am    1  UNL1       -0.2726
     20 C         142.8151  140.7361  168.9483 C.3     1  UNL1        0.1152
     21 C         140.3292  141.3378  169.4047 C.2     1  UNL1        0.2491
     22 O         139.1988  141.5457  170.3685 O.2     1  UNL1       -0.2699
     23 C         137.8999  141.7302  156.8272 C.3     1  UNL1        0.1110
     24 C         136.7512  141.0420  156.1512 C.3     1  UNL1        0.0939
     25 N         136.9847  139.7793  155.3758 N.3     1  UNL1       -0.2712
     26 C         135.9615  139.0408  154.5649 C.3     1  UNL1        0.0722
     27 C         136.6267  137.8385  153.9631 C.3     1  UNL1        0.0188
     28 C         138.0611  137.8341  154.4022 C.3     1  UNL1        0.0188
     29 C         138.2823  139.0336  155.2753 C.3     1  UNL1        0.0722
@<TRIPOS>BOND
     1    18    19    1
     2    19    20    1
     3    19    21   am
     4    21    22    2
     5    21    12    1
     6    12    13   ar
     7    13    14   ar
     8    14    15   ar
     9    15     1    1
    10     1     2   ar
    11     2     3   ar
    12     3     4   ar
    13     4     5   ar
    14     5     6   ar
    15     5     7    1
    16     7     8    1
    17     8     9    1
    18     9    23    1
    19    23    24    1
    20    24    25    1
    21    25    26    1
    22    26    27    1
    23    27    28    1
    24    28    29    1
    25     9    10   am
    26    10    11    2
    27    15    16   ar
    28    16    17   ar
    29    17    12   ar
    30     6     1   ar
    31    29    25    1
    32    10     4    1
