@<TRIPOS>MOLECULE
*****
 33 37 0 0 0
SMALL
GASTEIGER

@<TRIPOS>ATOM
      1 C         140.5628  144.6616  162.7027 C.ar    1  UNL1        0.0536
      2 C         139.4553  143.8860  163.3522 C.ar    1  UNL1        0.0045
      3 C         139.7405  143.0342  164.5535 C.ar    1  UNL1        0.0001
      4 C         141.1333  142.9581  165.1054 C.ar    1  UNL1       -0.0001
      5 C         142.2408  143.7337  164.4558 C.ar    1  UNL1        0.0001
      6 C         141.9555  144.5855  163.2545 C.ar    1  UNL1        0.0045
      7 C         141.4185  142.1064  166.3067 C.2     1  UNL1        0.0020
      8 C         140.9387  142.5357  167.6615 C.2     1  UNL1        0.0130
      9 C         141.2239  141.6839  168.8628 C.3     1  UNL1        0.1542
     10 C         140.4589  142.9650  169.0163 C.3     1  UNL1        0.0614
     11 C         139.9790  143.3942  170.3710 C.3     1  UNL1        0.0725
     12 N         140.2643  142.5425  171.5723 N.3     1  UNL1       -0.2972
     13 C         141.0293  141.2615  171.4189 C.3     1  UNL1        0.0725
     14 C         141.5092  140.8322  170.0641 C.3     1  UNL1        0.0614
     15 O         141.9890  140.4029  168.7093 O.3     1  UNL1       -0.4785
     16 C         142.4689  139.9736  167.3545 C.ar    1  UNL1        0.1386
     17 C         143.2340  138.6925  167.2010 C.ar    1  UNL1        0.0369
     18 C         143.7138  138.2632  165.8463 C.ar    1  UNL1        0.0031
     19 C         143.4286  139.1150  164.6449 C.ar    1  UNL1        0.0002
     20 C         142.6635  140.3960  164.7984 C.ar    1  UNL1        0.0030
     21 C         142.1836  140.8253  166.1532 C.ar    1  UNL1        0.0338
     22 H         139.3623  142.2995  171.9819 H       1  UNL1        0.1233
     23 C         140.3228  145.8599  158.9270 C.3     1  UNL1        0.1155
     24 N         140.6081  145.0082  160.1283 N.am    1  UNL1       -0.2702
     25 C         140.2776  145.5134  161.5014 C.2     1  UNL1        0.2493
     26 O         139.6618  146.8703  161.6733 O.2     1  UNL1       -0.2699
     27 C         141.2239  143.6512  159.9564 C.3     1  UNL1        0.1205
     28 C         140.4949  142.4307  160.4348 C.ar    1  UNL1       -0.0023
     29 C         139.0499  142.2344  160.0834 C.ar    1  UNL1       -0.0026
     30 C         138.3208  141.0138  160.5618 C.ar    1  UNL1       -0.0003
     31 C         139.0368  139.9897  161.3916 C.ar    1  UNL1       -0.0000
     32 C         140.4818  140.1861  161.7430 C.ar    1  UNL1       -0.0003
     33 C         141.2108  141.4066  161.2646 C.ar    1  UNL1       -0.0026
@<TRIPOS>BOND
     1    23    24    1
     2    24    27    1
     3    27    28    1
     4    28    29   ar
     5    29    30   ar
     6    30    31   ar
     7    31    32   ar
     8    32    33   ar
     9    24    25   am
    10    25    26    2
    11    25     1    1
    12     1     2   ar
    13     2     3   ar
    14     3     4   ar
    15     4     7    1
    16     7     8    2
    17     8     9    1
    18     9    10    1
    19    10    11    1
    20    11    12    1
    21    12    13    1
    22    13    14    1
    23     9    15    1
    24    15    16    1
    25    16    17   ar
    26    17    18   ar
    27    18    19   ar
    28    19    20   ar
    29    20    21   ar
    30     4     5   ar
    31     5     6   ar
    32    33    28   ar
    33     6     1   ar
    34    21     7    1
    35    14     9    1
    36    21    16   ar
    37    12    22    1
@<TRIPOS>MOLECULE
*****
 33 37 0 0 0
SMALL
GASTEIGER

@<TRIPOS>ATOM
      1 C         140.5861  144.3236  162.7873 C.ar    1  UNL1        0.0536
      2 C         139.5509  143.3768  163.3185 C.ar    1  UNL1        0.0045
      3 C         139.8380  142.5632  164.5456 C.ar    1  UNL1        0.0001
      4 C         141.1602  142.6963  165.2414 C.ar    1  UNL1       -0.0001
      5 C         142.1953  143.6430  164.7102 C.ar    1  UNL1        0.0001
      6 C         141.9083  144.4567  163.4831 C.ar    1  UNL1        0.0045
      7 C         141.4472  141.8827  166.4684 C.2     1  UNL1        0.0020
      8 C         140.9481  142.3418  167.8064 C.2     1  UNL1        0.0130
      9 C         141.2351  141.5281  169.0335 C.3     1  UNL1        0.1542
     10 C         140.4490  142.8008  169.1444 C.3     1  UNL1        0.0614
     11 C         139.9500  143.2598  170.4824 C.3     1  UNL1        0.0725
     12 N         140.2370  142.4462  171.7094 N.3     1  UNL1       -0.2972
     13 C         141.0231  141.1735  171.5985 C.3     1  UNL1        0.0725
     14 C         141.5222  140.7145  170.2605 C.3     1  UNL1        0.0614
     15 O         142.0213  140.2554  168.9225 O.3     1  UNL1       -0.4785
     16 C         142.5203  139.7964  167.5845 C.ar    1  UNL1        0.1386
     17 C         143.3065  138.5237  167.4735 C.ar    1  UNL1        0.0369
     18 C         143.8055  138.0646  166.1356 C.ar    1  UNL1        0.0031
     19 C         143.5185  138.8783  164.9085 C.ar    1  UNL1        0.0002
     20 C         142.7324  140.1509  165.0195 C.ar    1  UNL1        0.0030
     21 C         142.2333  140.6100  166.3575 C.ar    1  UNL1        0.0338
     22 H         139.3350  142.2005  172.1174 H       1  UNL1        0.1233
     23 C         140.0363  145.3026  158.9808 C.3     1  UNL1        0.1155
     24 N         140.3234  144.4889  160.2079 N.am    1  UNL1       -0.2702
     25 C         140.2991  145.1372  161.5603 C.2     1  UNL1        0.2493
     26 O         139.9878  146.5993  161.6857 O.2     1  UNL1       -0.2699
     27 C         140.6347  143.0269  160.0824 C.3     1  UNL1        0.1205
     28 C         141.9633  142.5012  160.5388 C.ar    1  UNL1       -0.0023
     29 C         143.2181  143.2614  160.2265 C.ar    1  UNL1       -0.0026
     30 C         144.5468  142.7357  160.6829 C.ar    1  UNL1       -0.0003
     31 C         144.6207  141.4497  161.4516 C.ar    1  UNL1       -0.0000
     32 C         143.3658  140.6895  161.7639 C.ar    1  UNL1       -0.0003
     33 C         142.0372  141.2152  161.3075 C.ar    1  UNL1       -0.0026
@<TRIPOS>BOND
     1    23    24    1
     2    24    27    1
     3    27    28    1
     4    28    29   ar
     5    29    30   ar
     6    30    31   ar
     7    31    32   ar
     8    32    33   ar
     9    24    25   am
    10    25    26    2
    11    25     1    1
    12     1     2   ar
    13     2     3   ar
    14     3     4   ar
    15     4     7    1
    16     7     8    2
    17     8     9    1
    18     9    10    1
    19    10    11    1
    20    11    12    1
    21    12    13    1
    22    13    14    1
    23     9    15    1
    24    15    16    1
    25    16    17   ar
    26    17    18   ar
    27    18    19   ar
    28    19    20   ar
    29    20    21   ar
    30     4     5   ar
    31     5     6   ar
    32    33    28   ar
    33     6     1   ar
    34    21     7    1
    35    14     9    1
    36    21    16   ar
    37    12    22    1
@<TRIPOS>MOLECULE
*****
 33 37 0 0 0
SMALL
GASTEIGER

@<TRIPOS>ATOM
      1 C         141.7917  143.3669  162.6710 C.ar    1  UNL1        0.0536
      2 C         141.9683  141.9013  162.9374 C.ar    1  UNL1        0.0045
      3 C         141.5965  141.3320  164.2745 C.ar    1  UNL1        0.0001
      4 C         141.0481  142.2283  165.3450 C.ar    1  UNL1       -0.0001
      5 C         140.8715  143.6938  165.0785 C.ar    1  UNL1        0.0001
      6 C         141.2433  144.2631  163.7415 C.ar    1  UNL1        0.0045
      7 C         140.6764  141.6590  166.6821 C.2     1  UNL1        0.0020
      8 C         141.3572  142.1541  167.9236 C.2     1  UNL1        0.0130
      9 C         140.9854  141.5848  169.2607 C.3     1  UNL1        0.1542
     10 C         142.0380  142.6492  169.1651 C.3     1  UNL1        0.0614
     11 C         142.7188  143.1442  170.4066 C.3     1  UNL1        0.0725
     12 N         142.3470  142.5749  171.7437 N.3     1  UNL1       -0.2972
     13 C         141.2945  141.5105  171.8392 C.3     1  UNL1        0.0725
     14 C         140.6137  141.0155  170.5977 C.3     1  UNL1        0.0614
     15 O         139.9328  140.5203  169.3561 O.3     1  UNL1       -0.4785
     16 C         139.2520  140.0253  168.1146 C.ar    1  UNL1        0.1386
     17 C         138.1994  138.9608  168.2101 C.ar    1  UNL1        0.0369
     18 C         137.5186  138.4658  166.9686 C.ar    1  UNL1        0.0031
     19 C         137.8904  139.0351  165.6316 C.ar    1  UNL1        0.0002
     20 C         138.9430  140.0995  165.5360 C.ar    1  UNL1        0.0030
     21 C         139.6238  140.5946  166.7776 C.ar    1  UNL1        0.0338
     22 H         142.0293  143.3556  172.3181 H       1  UNL1        0.1233
     23 C         141.4655  144.9975  159.0675 C.3     1  UNL1        0.1155
     24 N         141.0938  144.4282  160.4046 N.am    1  UNL1       -0.2702
     25 C         142.1634  143.9363  161.3339 C.2     1  UNL1        0.2493
     26 O         143.6049  144.0136  160.9263 O.2     1  UNL1       -0.2699
     27 C         139.6522  144.3509  160.8122 C.3     1  UNL1        0.1205
     28 C         139.0341  143.0226  161.1343 C.ar    1  UNL1       -0.0023
     29 C         139.3190  141.8328  160.2665 C.ar    1  UNL1       -0.0026
     30 C         138.7008  140.5045  160.5886 C.ar    1  UNL1       -0.0003
     31 C         137.7979  140.3661  161.7783 C.ar    1  UNL1       -0.0000
     32 C         137.5131  141.5561  162.6461 C.ar    1  UNL1       -0.0003
     33 C         138.1312  142.8843  162.3241 C.ar    1  UNL1       -0.0026
@<TRIPOS>BOND
     1    23    24    1
     2    24    27    1
     3    27    28    1
     4    28    29   ar
     5    29    30   ar
     6    30    31   ar
     7    31    32   ar
     8    32    33   ar
     9    24    25   am
    10    25    26    2
    11    25     1    1
    12     1     2   ar
    13     2     3   ar
    14     3     4   ar
    15     4     7    1
    16     7     8    2
    17     8     9    1
    18     9    10    1
    19    10    11    1
    20    11    12    1
    21    12    13    1
    22    13    14    1
    23     9    15    1
    24    15    16    1
    25    16    17   ar
    26    17    18   ar
    27    18    19   ar
    28    19    20   ar
    29    20    21   ar
    30     4     5   ar
    31     5     6   ar
    32    33    28   ar
    33     6     1   ar
    34    21     7    1
    35    14     9    1
    36    21    16   ar
    37    12    22    1
@<TRIPOS>MOLECULE
*****
 33 37 0 0 0
SMALL
GASTEIGER

@<TRIPOS>ATOM
      1 C         143.1243  142.3400  162.3290 C.ar    1  UNL1        0.0536
      2 C         142.8071  140.9110  162.6565 C.ar    1  UNL1        0.0045
      3 C         142.2136  140.5609  163.9889 C.ar    1  UNL1        0.0001
      4 C         141.9373  141.6398  164.9937 C.ar    1  UNL1       -0.0001
      5 C         142.2546  143.0688  164.6662 C.ar    1  UNL1        0.0001
      6 C         142.8481  143.4189  163.3338 C.ar    1  UNL1        0.0045
      7 C         141.3438  141.2897  166.3261 C.2     1  UNL1        0.0020
      8 C         141.9567  141.8281  167.5849 C.2     1  UNL1        0.0130
      9 C         141.3632  141.4780  168.9173 C.3     1  UNL1        0.1542
     10 C         142.5695  142.3664  168.8437 C.3     1  UNL1        0.0614
     11 C         143.1824  142.9047  170.1025 C.3     1  UNL1        0.0725
     12 N         142.5889  142.5546  171.4349 N.3     1  UNL1       -0.2972
     13 C         141.3825  141.6662  171.5085 C.3     1  UNL1        0.0725
     14 C         140.7697  141.1279  170.2497 C.3     1  UNL1        0.0614
     15 O         140.1568  140.5895  168.9908 O.3     1  UNL1       -0.4785
     16 C         139.5440  140.0512  167.7320 C.ar    1  UNL1        0.1386
     17 C         138.3376  139.1628  167.8055 C.ar    1  UNL1        0.0369
     18 C         137.7248  138.6245  166.5467 C.ar    1  UNL1        0.0031
     19 C         138.3183  138.9746  165.2144 C.ar    1  UNL1        0.0002
     20 C         139.5246  139.8630  165.1408 C.ar    1  UNL1        0.0030
     21 C         140.1375  140.4013  166.3996 C.ar    1  UNL1        0.0338
     22 H         142.3345  143.4343  171.8842 H       1  UNL1        0.1233
     23 C         143.4239  143.1931  158.4648 C.3     1  UNL1        0.1155
     24 N         142.8304  142.8430  159.7971 N.am    1  UNL1       -0.2702
     25 C         143.7178  142.6901  160.9966 C.2     1  UNL1        0.2493
     26 O         145.1989  142.8874  160.8639 O.2     1  UNL1       -0.2699
     27 C         141.3493  142.6458  159.9299 C.3     1  UNL1        0.1205
     28 C         140.5560  143.5209  160.8544 C.ar    1  UNL1       -0.0023
     29 C         139.5904  142.9067  161.8241 C.ar    1  UNL1       -0.0026
     30 C         138.7971  143.7818  162.7487 C.ar    1  UNL1       -0.0003
     31 C         138.9694  145.2712  162.7036 C.ar    1  UNL1       -0.0000
     32 C         139.9351  145.8854  161.7339 C.ar    1  UNL1       -0.0003
     33 C         140.7283  145.0103  160.8093 C.ar    1  UNL1       -0.0026
@<TRIPOS>BOND
     1    23    24    1
     2    24    27    1
     3    27    28    1
     4    28    29   ar
     5    29    30   ar
     6    30    31   ar
     7    31    32   ar
     8    32    33   ar
     9    24    25   am
    10    25    26    2
    11    25     1    1
    12     1     2   ar
    13     2     3   ar
    14     3     4   ar
    15     4     7    1
    16     7     8    2
    17     8     9    1
    18     9    10    1
    19    10    11    1
    20    11    12    1
    21    12    13    1
    22    13    14    1
    23     9    15    1
    24    15    16    1
    25    16    17   ar
    26    17    18   ar
    27    18    19   ar
    28    19    20   ar
    29    20    21   ar
    30     4     5   ar
    31     5     6   ar
    32    33    28   ar
    33     6     1   ar
    34    21     7    1
    35    14     9    1
    36    21    16   ar
    37    12    22    1
@<TRIPOS>MOLECULE
*****
 33 37 0 0 0
SMALL
GASTEIGER

@<TRIPOS>ATOM
      1 C         140.8679  142.7174  167.2228 C.ar    1  UNL1        0.0536
      2 C         139.7069  142.7282  166.2729 C.ar    1  UNL1        0.0045
      3 C         139.9489  142.7089  164.7927 C.ar    1  UNL1        0.0001
      4 C         141.3517  142.6788  164.2623 C.ar    1  UNL1       -0.0001
      5 C         142.5125  142.6680  165.2122 C.ar    1  UNL1        0.0001
      6 C         142.2706  142.6873  166.6925 C.ar    1  UNL1        0.0045
      7 C         141.5936  142.6595  162.7821 C.2     1  UNL1        0.0020
      8 C         142.3190  141.5055  162.1557 C.2     1  UNL1        0.0130
      9 C         142.5609  141.4862  160.6754 C.3     1  UNL1        0.1542
     10 C         143.0443  140.3517  161.5293 C.3     1  UNL1        0.0614
     11 C         143.7696  139.1978  160.9028 C.3     1  UNL1        0.0725
     12 N         144.0115  139.1785  159.4226 N.3     1  UNL1       -0.2972
     13 C         143.5281  140.3131  158.5688 C.3     1  UNL1        0.0725
     14 C         142.8028  141.4669  159.1952 C.3     1  UNL1        0.0614
     15 O         142.0775  142.6209  159.8216 O.3     1  UNL1       -0.4785
     16 C         141.3522  143.7748  160.4481 C.ar    1  UNL1        0.1386
     17 C         140.8687  144.9094  159.5942 C.ar    1  UNL1        0.0369
     18 C         140.1434  146.0633  160.2207 C.ar    1  UNL1        0.0031
     19 C         139.9015  146.0826  161.7009 C.ar    1  UNL1        0.0002
     20 C         140.3849  144.9480  162.5547 C.ar    1  UNL1        0.0030
     21 C         141.1102  143.7941  161.9283 C.ar    1  UNL1        0.0338
     22 H         143.5714  138.3314  159.0633 H       1  UNL1        0.1233
     23 C         140.5648  141.5039  170.9892 C.3     1  UNL1        0.1155
     24 N         140.8067  141.4846  169.5089 N.am    1  UNL1       -0.2702
     25 C         140.6260  142.7367  168.7031 C.2     1  UNL1        0.2493
     26 O         140.2033  144.0082  169.3774 O.2     1  UNL1       -0.2699
     27 C         141.2294  140.2131  168.8346 C.3     1  UNL1        0.1205
     28 C         140.4324  139.6736  167.6840 C.ar    1  UNL1       -0.0023
     29 C         141.1249  139.2680  166.4168 C.ar    1  UNL1       -0.0026
     30 C         140.3280  138.7284  165.2662 C.ar    1  UNL1       -0.0003
     31 C         138.8386  138.5945  165.3829 C.ar    1  UNL1       -0.0000
     32 C         138.1461  139.0001  166.6502 C.ar    1  UNL1       -0.0003
     33 C         138.9430  139.5396  167.8007 C.ar    1  UNL1       -0.0026
@<TRIPOS>BOND
     1    23    24    1
     2    24    27    1
     3    27    28    1
     4    28    29   ar
     5    29    30   ar
     6    30    31   ar
     7    31    32   ar
     8    32    33   ar
     9    24    25   am
    10    25    26    2
    11    25     1    1
    12     1     2   ar
    13     2     3   ar
    14     3     4   ar
    15     4     7    1
    16     7     8    2
    17     8     9    1
    18     9    10    1
    19    10    11    1
    20    11    12    1
    21    12    13    1
    22    13    14    1
    23     9    15    1
    24    15    16    1
    25    16    17   ar
    26    17    18   ar
    27    18    19   ar
    28    19    20   ar
    29    20    21   ar
    30     4     5   ar
    31     5     6   ar
    32    33    28   ar
    33     6     1   ar
    34    21     7    1
    35    14     9    1
    36    21    16   ar
    37    12    22    1
@<TRIPOS>MOLECULE
*****
 33 37 0 0 0
SMALL
GASTEIGER

@<TRIPOS>ATOM
      1 C         139.8878  144.6661  162.1045 C.ar    1  UNL1        0.0536
      2 C         141.1424  144.4182  162.8886 C.ar    1  UNL1        0.0045
      3 C         141.1121  143.5161  164.0866 C.ar    1  UNL1        0.0001
      4 C         139.8273  142.8620  164.5007 C.ar    1  UNL1       -0.0001
      5 C         138.5728  143.1100  163.7166 C.ar    1  UNL1        0.0001
      6 C         138.6031  144.0120  162.5186 C.ar    1  UNL1        0.0045
      7 C         139.7970  141.9600  165.6987 C.2     1  UNL1        0.0020
      8 C         140.1517  142.4993  167.0528 C.2     1  UNL1        0.0130
      9 C         140.1215  141.5972  168.2508 C.3     1  UNL1        0.1542
     10 C         140.5064  143.0385  168.4068 C.3     1  UNL1        0.0614
     11 C         140.8611  143.5778  169.7608 C.3     1  UNL1        0.0725
     12 N         140.8309  142.6757  170.9588 N.3     1  UNL1       -0.2972
     13 C         140.4459  141.2344  170.8029 C.3     1  UNL1        0.0725
     14 C         140.0912  140.6951  169.4489 C.3     1  UNL1        0.0614
     15 O         139.7364  140.1558  168.0949 O.3     1  UNL1       -0.4785
     16 C         139.3817  139.6166  166.7409 C.ar    1  UNL1        0.1386
     17 C         138.9967  138.1752  166.5849 C.ar    1  UNL1        0.0369
     18 C         138.6420  137.6359  165.2309 C.ar    1  UNL1        0.0031
     19 C         138.6723  138.5380  164.0328 C.ar    1  UNL1        0.0002
     20 C         139.0573  139.9793  164.1887 C.ar    1  UNL1        0.0030
     21 C         139.4120  140.5186  165.5428 C.ar    1  UNL1        0.0338
     22 H         140.1719  143.0866  171.6202 H       1  UNL1        0.1233
     23 C         140.5698  145.9962  158.4281 C.3     1  UNL1        0.1155
     24 N         140.5395  145.0941  159.6262 N.am    1  UNL1       -0.2702
     25 C         139.9181  145.5682  160.9064 C.2     1  UNL1        0.2493
     26 O         139.3270  146.9444  160.9887 O.2     1  UNL1       -0.2699
     27 C         141.1307  143.7179  159.5440 C.3     1  UNL1        0.1205
     28 C         140.2400  142.5134  159.6186 C.ar    1  UNL1       -0.0023
     29 C         140.5712  141.3928  160.5590 C.ar    1  UNL1       -0.0026
     30 C         139.6805  140.1881  160.6336 C.ar    1  UNL1       -0.0003
     31 C         138.4585  140.1042  159.7678 C.ar    1  UNL1       -0.0000
     32 C         138.1273  141.2248  158.8273 C.ar    1  UNL1       -0.0003
     33 C         139.0180  142.4294  158.7527 C.ar    1  UNL1       -0.0026
@<TRIPOS>BOND
     1    23    24    1
     2    24    27    1
     3    27    28    1
     4    28    29   ar
     5    29    30   ar
     6    30    31   ar
     7    31    32   ar
     8    32    33   ar
     9    24    25   am
    10    25    26    2
    11    25     1    1
    12     1     2   ar
    13     2     3   ar
    14     3     4   ar
    15     4     7    1
    16     7     8    2
    17     8     9    1
    18     9    10    1
    19    10    11    1
    20    11    12    1
    21    12    13    1
    22    13    14    1
    23     9    15    1
    24    15    16    1
    25    16    17   ar
    26    17    18   ar
    27    18    19   ar
    28    19    20   ar
    29    20    21   ar
    30     4     5   ar
    31     5     6   ar
    32    33    28   ar
    33     6     1   ar
    34    21     7    1
    35    14     9    1
    36    21    16   ar
    37    12    22    1
@<TRIPOS>MOLECULE
*****
 33 37 0 0 0
SMALL
GASTEIGER

@<TRIPOS>ATOM
      1 C         139.8910  144.6322  162.2256 C.ar    1  UNL1        0.0536
      2 C         138.6491  143.8507  162.5376 C.ar    1  UNL1        0.0045
      3 C         138.6177  142.9353  163.7254 C.ar    1  UNL1        0.0001
      4 C         139.8280  142.8014  164.6014 C.ar    1  UNL1       -0.0001
      5 C         141.0698  143.5828  164.2894 C.ar    1  UNL1        0.0001
      6 C         141.1013  144.4982  163.1015 C.ar    1  UNL1        0.0045
      7 C         139.7966  141.8860  165.7892 C.2     1  UNL1        0.0020
      8 C         140.1629  142.4069  167.1474 C.2     1  UNL1        0.0130
      9 C         140.1314  141.4915  168.3353 C.3     1  UNL1        0.1542
     10 C         140.5292  142.9277  168.5055 C.3     1  UNL1        0.0614
     11 C         140.8955  143.4485  169.8636 C.3     1  UNL1        0.0725
     12 N         140.8640  142.5331  171.0515 N.3     1  UNL1       -0.2972
     13 C         140.4662  141.0969  170.8813 C.3     1  UNL1        0.0725
     14 C         140.0999  140.5761  169.5232 C.3     1  UNL1        0.0614
     15 O         139.7336  140.0552  168.1650 O.3     1  UNL1       -0.4785
     16 C         139.3673  139.5344  166.8069 C.ar    1  UNL1        0.1386
     17 C         138.9695  138.0981  166.6366 C.ar    1  UNL1        0.0369
     18 C         138.6032  137.5773  165.2785 C.ar    1  UNL1        0.0031
     19 C         138.6347  138.4927  164.0906 C.ar    1  UNL1        0.0002
     20 C         139.0324  139.9289  164.2608 C.ar    1  UNL1        0.0030
     21 C         139.3988  140.4498  165.6190 C.ar    1  UNL1        0.0338
     22 H         140.2120  142.9418  171.7210 H       1  UNL1        0.1233
     23 C         140.2066  145.9060  158.4802 C.3     1  UNL1        0.1155
     24 N         140.1751  144.9906  159.6681 N.am    1  UNL1       -0.2702
     25 C         139.9225  145.5476  161.0377 C.2     1  UNL1        0.2493
     26 O         139.7012  147.0200  161.2195 O.2     1  UNL1       -0.2699
     27 C         140.3963  143.5181  159.4863 C.3     1  UNL1        0.1205
     28 C         141.5286  142.8366  160.1959 C.ar    1  UNL1       -0.0023
     29 C         142.9148  143.4037  160.1139 C.ar    1  UNL1       -0.0026
     30 C         144.0471  142.7221  160.8235 C.ar    1  UNL1       -0.0003
     31 C         143.7932  141.4735  161.6149 C.ar    1  UNL1       -0.0000
     32 C         142.4069  140.9064  161.6968 C.ar    1  UNL1       -0.0003
     33 C         141.2746  141.5879  160.9873 C.ar    1  UNL1       -0.0026
@<TRIPOS>BOND
     1    23    24    1
     2    24    27    1
     3    27    28    1
     4    28    29   ar
     5    29    30   ar
     6    30    31   ar
     7    31    32   ar
     8    32    33   ar
     9    24    25   am
    10    25    26    2
    11    25     1    1
    12     1     2   ar
    13     2     3   ar
    14     3     4   ar
    15     4     7    1
    16     7     8    2
    17     8     9    1
    18     9    10    1
    19    10    11    1
    20    11    12    1
    21    12    13    1
    22    13    14    1
    23     9    15    1
    24    15    16    1
    25    16    17   ar
    26    17    18   ar
    27    18    19   ar
    28    19    20   ar
    29    20    21   ar
    30     4     5   ar
    31     5     6   ar
    32    33    28   ar
    33     6     1   ar
    34    21     7    1
    35    14     9    1
    36    21    16   ar
    37    12    22    1
@<TRIPOS>MOLECULE
*****
 33 37 0 0 0
SMALL
GASTEIGER

@<TRIPOS>ATOM
      1 C         143.0958  139.0752  164.5854 C.ar    1  UNL1        0.0536
      2 C         144.2635  139.6124  163.8120 C.ar    1  UNL1        0.0045
      3 C         144.1396  139.8517  162.3364 C.ar    1  UNL1        0.0001
      4 C         142.8480  139.5539  161.6342 C.ar    1  UNL1       -0.0001
      5 C         141.6803  139.0168  162.4075 C.ar    1  UNL1        0.0001
      6 C         141.8042  138.7774  163.8831 C.ar    1  UNL1        0.0045
      7 C         142.7240  139.7932  160.1586 C.2     1  UNL1        0.0020
      8 C         142.7489  138.6346  159.2062 C.2     1  UNL1        0.0130
      9 C         142.6250  138.8739  157.7306 C.3     1  UNL1        0.1542
     10 C         142.7738  137.4761  158.2538 C.3     1  UNL1        0.0614
     11 C         142.7986  136.3175  157.3014 C.3     1  UNL1        0.0725
     12 N         142.6747  136.5569  155.8258 N.3     1  UNL1       -0.2972
     13 C         142.5259  137.9547  155.3026 C.3     1  UNL1        0.0725
     14 C         142.5011  139.1133  156.2550 C.3     1  UNL1        0.0614
     15 O         142.4762  140.2719  157.2074 O.3     1  UNL1       -0.4785
     16 C         142.4514  141.4304  158.1598 C.ar    1  UNL1        0.1386
     17 C         142.3026  142.8284  157.6366 C.ar    1  UNL1        0.0369
     18 C         142.2777  143.9870  158.5890 C.ar    1  UNL1        0.0031
     19 C         142.4016  143.7476  160.0646 C.ar    1  UNL1        0.0002
     20 C         142.5504  142.3497  160.5878 C.ar    1  UNL1        0.0030
     21 C         142.5753  141.1911  159.6354 C.ar    1  UNL1        0.0338
     22 H         141.8564  136.0359  155.5107 H       1  UNL1        0.1233
     23 C         142.6534  139.5105  168.5051 C.3     1  UNL1        0.1155
     24 N         142.5295  139.7498  167.0296 N.am    1  UNL1       -0.2702
     25 C         143.2197  138.8359  166.0609 C.2     1  UNL1        0.2493
     26 O         144.0339  137.6825  166.5679 O.2     1  UNL1       -0.2699
     27 C         141.7153  140.9032  166.5226 C.3     1  UNL1        0.1205
     28 C         142.3812  142.0202  165.7752 C.ar    1  UNL1       -0.0023
     29 C         143.7247  142.5211  166.2157 C.ar    1  UNL1       -0.0026
     30 C         144.3908  143.6382  165.4683 C.ar    1  UNL1       -0.0003
     31 C         143.7133  144.2543  164.2803 C.ar    1  UNL1       -0.0000
     32 C         142.3697  143.7534  163.8397 C.ar    1  UNL1       -0.0003
     33 C         141.7037  142.6364  164.5872 C.ar    1  UNL1       -0.0026
@<TRIPOS>BOND
     1    23    24    1
     2    24    27    1
     3    27    28    1
     4    28    29   ar
     5    29    30   ar
     6    30    31   ar
     7    31    32   ar
     8    32    33   ar
     9    24    25   am
    10    25    26    2
    11    25     1    1
    12     1     2   ar
    13     2     3   ar
    14     3     4   ar
    15     4     7    1
    16     7     8    2
    17     8     9    1
    18     9    10    1
    19    10    11    1
    20    11    12    1
    21    12    13    1
    22    13    14    1
    23     9    15    1
    24    15    16    1
    25    16    17   ar
    26    17    18   ar
    27    18    19   ar
    28    19    20   ar
    29    20    21   ar
    30     4     5   ar
    31     5     6   ar
    32    33    28   ar
    33     6     1   ar
    34    21     7    1
    35    14     9    1
    36    21    16   ar
    37    12    22    1
@<TRIPOS>MOLECULE
*****
 33 37 0 0 0
SMALL
GASTEIGER

@<TRIPOS>ATOM
      1 C         140.3160  138.6187  161.9395 C.ar    1  UNL1        0.0536
      2 C         141.5812  137.8252  161.7986 C.ar    1  UNL1        0.0045
      3 C         142.4513  138.0092  160.5907 C.ar    1  UNL1        0.0001
      4 C         142.0563  138.9868  159.5237 C.ar    1  UNL1       -0.0001
      5 C         140.7912  139.7802  159.6646 C.ar    1  UNL1        0.0001
      6 C         139.9211  139.5962  160.8725 C.ar    1  UNL1        0.0045
      7 C         142.9265  139.1708  158.3158 C.2     1  UNL1        0.0020
      8 C         143.8638  140.3393  158.2377 C.2     1  UNL1        0.0130
      9 C         144.7339  140.5234  157.0298 C.3     1  UNL1        0.1542
     10 C         144.8010  141.5078  158.1595 C.3     1  UNL1        0.0614
     11 C         145.7383  142.6763  158.0814 C.3     1  UNL1        0.0725
     12 N         146.6084  142.8603  156.8735 N.3     1  UNL1       -0.2972
     13 C         146.5413  141.8759  155.7438 C.3     1  UNL1        0.0725
     14 C         145.6041  140.7074  155.8219 C.3     1  UNL1        0.0614
     15 O         144.6668  139.5388  155.9001 O.3     1  UNL1       -0.4785
     16 C         143.7295  138.3704  155.9782 C.ar    1  UNL1        0.1386
     17 C         143.6623  137.3858  154.8485 C.ar    1  UNL1        0.0369
     18 C         142.7251  136.2174  154.9266 C.ar    1  UNL1        0.0031
     19 C         141.8549  136.0333  156.1345 C.ar    1  UNL1        0.0002
     20 C         141.9221  137.0178  157.2642 C.ar    1  UNL1        0.0030
     21 C         142.8594  138.1863  157.1861 C.ar    1  UNL1        0.0338
     22 H         147.5735  142.8643  157.2037 H       1  UNL1        0.1233
     23 C         138.7011  139.1877  165.5197 C.3     1  UNL1        0.1155
     24 N         139.5713  139.3718  164.3119 N.am    1  UNL1       -0.2702
     25 C         139.4459  138.4347  163.1474 C.2     1  UNL1        0.2493
     26 O         138.4503  137.3135  163.1907 O.2     1  UNL1       -0.2699
     27 C         140.5669  140.4930  164.2685 C.3     1  UNL1        0.1205
     28 C         142.0363  140.1923  164.2868 C.ar    1  UNL1       -0.0023
     29 C         142.9514  140.8638  163.3062 C.ar    1  UNL1       -0.0026
     30 C         144.4209  140.5632  163.3244 C.ar    1  UNL1       -0.0003
     31 C         144.9752  139.5910  164.3232 C.ar    1  UNL1       -0.0000
     32 C         144.0600  138.9195  165.3038 C.ar    1  UNL1       -0.0003
     33 C         142.5906  139.2202  165.2856 C.ar    1  UNL1       -0.0026
@<TRIPOS>BOND
     1    23    24    1
     2    24    27    1
     3    27    28    1
     4    28    29   ar
     5    29    30   ar
     6    30    31   ar
     7    31    32   ar
     8    32    33   ar
     9    24    25   am
    10    25    26    2
    11    25     1    1
    12     1     2   ar
    13     2     3   ar
    14     3     4   ar
    15     4     7    1
    16     7     8    2
    17     8     9    1
    18     9    10    1
    19    10    11    1
    20    11    12    1
    21    12    13    1
    22    13    14    1
    23     9    15    1
    24    15    16    1
    25    16    17   ar
    26    17    18   ar
    27    18    19   ar
    28    19    20   ar
    29    20    21   ar
    30     4     5   ar
    31     5     6   ar
    32    33    28   ar
    33     6     1   ar
    34    21     7    1
    35    14     9    1
    36    21    16   ar
    37    12    22    1
