@<TRIPOS>MOLECULE
*****
 38 44 0 0 0
SMALL
GASTEIGER

@<TRIPOS>ATOM
      1 C         138.4912  141.8360  164.4517 C.3     1  UNL1        0.0955
      2 C         138.1006  141.8363  163.0033 C.3     1  UNL1        0.0287
      3 C         138.1017  143.1194  162.2265 C.3     1  UNL1        0.0193
      4 C         138.4935  144.4023  162.8978 C.3     1  UNL1        0.0700
      5 C         138.8841  144.4020  164.3461 C.3     1  UNL1        0.0193
      6 C         138.8830  143.1189  165.1230 C.3     1  UNL1        0.0287
      7 C         138.5081  143.7241  163.3647 C.3     1  UNL1        0.1562
      8 O         138.5070  142.5639  164.0672 O.3     1  UNL1       -0.3571
      9 N         138.4946  145.6855  162.1210 N.3     1  UNL1       -0.2939
     10 H         138.2259  146.4237  162.7714 H       1  UNL1        0.1235
     11 C         139.7470  146.1464  161.4362 C.3     1  UNL1        0.0957
     12 C         140.9000  145.2020  161.2664 C.ar    1  UNL1       -0.0032
     13 C         141.1706  144.5820  159.9276 C.ar    1  UNL1        0.0004
     14 C         142.3236  143.6376  159.7577 C.ar    1  UNL1        0.0398
     15 C         143.2059  143.3133  160.9265 C.ar    1  UNL1        0.1724
     16 C         142.9354  143.9333  162.2653 C.ar    1  UNL1        0.1721
     17 C         141.7824  144.8777  162.4352 C.ar    1  UNL1        0.0371
     18 O         143.8176  143.6090  163.4342 O.3     1  UNL1       -0.4684
     19 C         144.9706  142.6646  163.2643 C.3     1  UNL1        0.2526
     20 C         145.2412  142.0446  161.9256 C.3     1  UNL1        0.2526
     21 O         144.3589  142.3689  160.7566 O.3     1  UNL1       -0.4684
     22 C         138.4901  140.5529  165.2285 C.3     1  UNL1        0.0604
     23 O         138.8861  141.0589  170.3148 O.2     1  UNL1       -0.2670
     24 C         140.0890  140.4099  169.6969 C.ar    1  UNL1        0.2611
     25 C         141.2398  139.9869  170.5610 C.ar    1  UNL1        0.0623
     26 C         142.4427  139.3378  169.9432 C.ar    1  UNL1        0.0254
     27 C         142.4948  139.1117  168.4613 C.ar    1  UNL1        0.0972
     28 N         143.5530  138.4953  167.5834 N.ar    1  UNL1       -0.2400
     29 C         143.4627  138.3351  166.0947 C.ar    1  UNL1        0.1282
     30 C         142.2425  138.8086  165.3621 C.ar    1  UNL1        0.1588
     31 F         142.1522  138.6484  163.8734 F       1  UNL1       -0.2027
     32 C         141.1124  139.4422  166.1181 C.ar    1  UNL1        0.0500
     33 C         141.3440  139.5347  167.5972 C.ar    1  UNL1        0.0806
     34 N         140.1411  140.1837  168.2150 N.ar    1  UNL1       -0.2915
     35 C         139.1661  140.4924  167.1177 C.3     1  UNL1        0.1402
     36 C         139.7664  140.0341  165.8217 C.3     1  UNL1        0.1335
     37 O         140.0999  139.6842  164.4017 O.3     1  UNL1       -0.3806
     38 H         139.3680  139.9493  163.8230 H       1  UNL1        0.2108
@<TRIPOS>BOND
     1    23    24    2
     2    24    25   ar
     3    25    26   ar
     4    26    27   ar
     5    27    28   ar
     6    28    29   ar
     7    29    30   ar
     8    30    31    1
     9    30    32   ar
    10    32    33   ar
    11    33    34   ar
    12    34    35    1
    13    35    36    1
    14    36    37    1
    15    36    22    1
    16    22     1    1
    17     1     2    1
    18     2     3    1
    19     3     4    1
    20     4     9    1
    21     9    11    1
    22    11    12    1
    23    12    13   ar
    24    13    14   ar
    25    14    15   ar
    26    15    16   ar
    27    16    17   ar
    28    16    18    1
    29    18    19    1
    30    19    20    1
    31    20    21    1
    32     4     5    1
    33     5     6    1
    34     4     7    1
    35     7     8    1
    36    34    24   ar
    37     6     1    1
    38    33    27   ar
    39     8     1    1
    40    36    32    1
    41    17    12   ar
    42    21    15    1
    43    37    38    1
    44     9    10    1
@<TRIPOS>MOLECULE
*****
 38 44 0 0 0
SMALL
GASTEIGER

@<TRIPOS>ATOM
      1 C         138.3138  141.6639  164.6634 C.3     1  UNL1        0.0955
      2 C         139.2899  142.5649  165.3602 C.3     1  UNL1        0.0287
      3 C         140.1764  142.0184  166.4398 C.3     1  UNL1        0.0193
      4 C         140.0868  140.5709  166.8226 C.3     1  UNL1        0.0700
      5 C         139.1108  139.6698  166.1258 C.3     1  UNL1        0.0193
      6 C         138.2242  140.2163  165.0462 C.3     1  UNL1        0.0287
      7 C         139.5804  140.8247  166.2250 C.3     1  UNL1        0.1562
      8 O         138.7788  141.3188  165.2488 O.3     1  UNL1       -0.3571
      9 N         140.9733  140.0243  167.9022 N.3     1  UNL1       -0.2939
     10 H         140.4811  139.2315  168.3141 H       1  UNL1        0.1235
     11 C         142.3562  139.5493  167.5681 C.3     1  UNL1        0.0957
     12 C         142.8868  139.7064  166.1738 C.ar    1  UNL1       -0.0032
     13 C         143.6913  140.9189  165.8098 C.ar    1  UNL1        0.0004
     14 C         144.2220  141.0761  164.4156 C.ar    1  UNL1        0.0398
     15 C         143.9481  140.0207  163.3855 C.ar    1  UNL1        0.1724
     16 C         143.1436  138.8082  163.7495 C.ar    1  UNL1        0.1721
     17 C         142.6129  138.6510  165.1437 C.ar    1  UNL1        0.0371
     18 O         142.8696  137.7528  162.7194 O.3     1  UNL1       -0.4684
     19 C         143.4002  137.9100  161.3253 C.3     1  UNL1        0.2526
     20 C         144.2047  139.1225  160.9612 C.3     1  UNL1        0.2526
     21 O         144.4787  140.1779  161.9913 O.3     1  UNL1       -0.4684
     22 C         137.4274  142.2104  163.5838 C.3     1  UNL1        0.0604
     23 O         140.3105  146.1483  162.0145 O.2     1  UNL1       -0.2670
     24 C         140.0631  145.1382  160.9335 C.ar    1  UNL1        0.2611
     25 C         140.6420  145.3467  159.5655 C.ar    1  UNL1        0.0623
     26 C         140.3946  144.3366  158.4845 C.ar    1  UNL1        0.0254
     27 C         139.5684  143.1181  158.7715 C.ar    1  UNL1        0.0972
     28 N         139.1633  141.9595  157.8974 N.ar    1  UNL1       -0.2400
     29 C         138.3215  140.7960  158.3306 C.ar    1  UNL1        0.1282
     30 C         137.8106  140.7232  159.7391 C.ar    1  UNL1        0.1588
     31 F         136.9689  139.5597  160.1723 F       1  UNL1       -0.2027
     32 C         138.1415  141.8139  160.7142 C.ar    1  UNL1        0.0500
     33 C         138.9895  142.9096  160.1395 C.ar    1  UNL1        0.0806
     34 N         139.2369  143.9197  161.2205 N.ar    1  UNL1       -0.2915
     35 C         138.5417  143.4482  162.4633 C.3     1  UNL1        0.1402
     36 C         137.8647  142.1468  162.1504 C.3     1  UNL1        0.1335
     37 O         137.0963  140.8586  162.1372 O.3     1  UNL1       -0.3806
     38 H         136.7118  140.7025  163.0139 H       1  UNL1        0.2108
@<TRIPOS>BOND
     1    23    24    2
     2    24    25   ar
     3    25    26   ar
     4    26    27   ar
     5    27    28   ar
     6    28    29   ar
     7    29    30   ar
     8    30    31    1
     9    30    32   ar
    10    32    33   ar
    11    33    34   ar
    12    34    35    1
    13    35    36    1
    14    36    37    1
    15    36    22    1
    16    22     1    1
    17     1     2    1
    18     2     3    1
    19     3     4    1
    20     4     9    1
    21     9    11    1
    22    11    12    1
    23    12    13   ar
    24    13    14   ar
    25    14    15   ar
    26    15    16   ar
    27    16    17   ar
    28    16    18    1
    29    18    19    1
    30    19    20    1
    31    20    21    1
    32     4     5    1
    33     5     6    1
    34     4     7    1
    35     7     8    1
    36    34    24   ar
    37     6     1    1
    38    33    27   ar
    39     8     1    1
    40    36    32    1
    41    17    12   ar
    42    21    15    1
    43    37    38    1
    44     9    10    1
@<TRIPOS>MOLECULE
*****
 38 44 0 0 0
SMALL
GASTEIGER

@<TRIPOS>ATOM
      1 C         139.8877  142.5794  165.5013 C.3     1  UNL1        0.0955
      2 C         139.3311  141.3198  166.0962 C.3     1  UNL1        0.0287
      3 C         140.2371  140.3676  166.8190 C.3     1  UNL1        0.0193
      4 C         141.6997  140.6750  166.9470 C.3     1  UNL1        0.0700
      5 C         142.2562  141.9345  166.3522 C.3     1  UNL1        0.0193
      6 C         141.3502  142.8868  165.6293 C.3     1  UNL1        0.0287
      7 C         141.2425  141.2272  166.5419 C.3     1  UNL1        0.1562
      8 O         140.4233  142.0881  165.8883 O.3     1  UNL1       -0.3571
      9 N         142.6057  139.7228  167.6698 N.3     1  UNL1       -0.2939
     10 H         142.0509  139.2928  168.4099 H       1  UNL1        0.1235
     11 C         143.2698  138.6053  166.9215 C.3     1  UNL1        0.0957
     12 C         142.9564  138.3834  165.4714 C.ar    1  UNL1       -0.0032
     13 C         141.7831  137.5354  165.0790 C.ar    1  UNL1        0.0004
     14 C         141.4696  137.3134  163.6290 C.ar    1  UNL1        0.0398
     15 C         142.3295  137.9395  162.5714 C.ar    1  UNL1        0.1724
     16 C         143.5029  138.7875  162.9638 C.ar    1  UNL1        0.1721
     17 C         143.8164  139.0095  164.4138 C.ar    1  UNL1        0.0371
     18 O         144.3629  139.4136  161.9063 O.3     1  UNL1       -0.4684
     19 C         144.0495  139.1917  160.4563 C.3     1  UNL1        0.2526
     20 C         142.8761  138.3437  160.0638 C.3     1  UNL1        0.2526
     21 O         142.0161  137.7175  161.1214 O.3     1  UNL1       -0.4684
     22 C         138.9816  143.5316  164.7785 C.3     1  UNL1        0.0604
     23 O         137.6117  139.6386  161.7371 O.2     1  UNL1       -0.2670
     24 C         138.1300  140.8215  160.9741 C.ar    1  UNL1        0.2611
     25 C         138.2020  140.7751  159.4766 C.ar    1  UNL1        0.0623
     26 C         138.7203  141.9580  158.7136 C.ar    1  UNL1        0.0254
     27 C         139.1665  143.1874  159.4481 C.ar    1  UNL1        0.0972
     28 N         139.7198  144.4987  158.9535 N.ar    1  UNL1       -0.2400
     29 C         140.1279  145.6527  159.8204 C.ar    1  UNL1        0.1282
     30 C         139.9981  145.5532  161.3115 C.ar    1  UNL1        0.1588
     31 F         140.4063  146.7073  162.1784 F       1  UNL1       -0.2027
     32 C         139.4601  144.2998  161.9356 C.ar    1  UNL1        0.0500
     33 C         139.0945  143.2338  160.9457 C.ar    1  UNL1        0.0806
     34 N         138.5762  142.0509  161.7086 N.ar    1  UNL1       -0.2915
     35 C         138.6216  142.3859  163.1701 C.3     1  UNL1        0.1402
     36 C         139.1678  143.7758  163.3103 C.3     1  UNL1        0.1335
     37 O         139.6752  145.1147  163.7575 O.3     1  UNL1       -0.3806
     38 H         139.6379  145.1678  164.7253 H       1  UNL1        0.2108
@<TRIPOS>BOND
     1    23    24    2
     2    24    25   ar
     3    25    26   ar
     4    26    27   ar
     5    27    28   ar
     6    28    29   ar
     7    29    30   ar
     8    30    31    1
     9    30    32   ar
    10    32    33   ar
    11    33    34   ar
    12    34    35    1
    13    35    36    1
    14    36    37    1
    15    36    22    1
    16    22     1    1
    17     1     2    1
    18     2     3    1
    19     3     4    1
    20     4     9    1
    21     9    11    1
    22    11    12    1
    23    12    13   ar
    24    13    14   ar
    25    14    15   ar
    26    15    16   ar
    27    16    17   ar
    28    16    18    1
    29    18    19    1
    30    19    20    1
    31    20    21    1
    32     4     5    1
    33     5     6    1
    34     4     7    1
    35     7     8    1
    36    34    24   ar
    37     6     1    1
    38    33    27   ar
    39     8     1    1
    40    36    32    1
    41    17    12   ar
    42    21    15    1
    43    37    38    1
    44     9    10    1
@<TRIPOS>MOLECULE
*****
 38 44 0 0 0
SMALL
GASTEIGER

@<TRIPOS>ATOM
      1 C         138.7300  139.0244  164.1458 C.3     1  UNL1        0.0955
      2 C         138.0655  140.3277  163.8140 C.3     1  UNL1        0.0287
      3 C         137.5628  140.5806  162.4235 C.3     1  UNL1        0.0193
      4 C         137.7245  139.5303  161.3649 C.3     1  UNL1        0.0700
      5 C         138.3890  138.2271  161.6967 C.3     1  UNL1        0.0193
      6 C         138.8918  137.9741  163.0871 C.3     1  UNL1        0.0287
      7 C         138.0161  139.3460  162.1126 C.3     1  UNL1        0.1562
      8 O         138.4706  139.1173  163.3698 O.3     1  UNL1       -0.3571
      9 N         137.2218  139.7832  159.9744 N.3     1  UNL1       -0.2939
     10 H         136.4027  140.3847  160.0623 H       1  UNL1        0.1235
     11 C         138.1202  140.4211  158.9566 C.3     1  UNL1        0.0957
     12 C         139.2806  141.2609  159.4019 C.ar    1  UNL1       -0.0032
     13 C         139.1261  142.7477  159.5266 C.ar    1  UNL1        0.0004
     14 C         140.2864  143.5876  159.9718 C.ar    1  UNL1        0.0398
     15 C         141.6012  142.9407  160.2924 C.ar    1  UNL1        0.1724
     16 C         141.7557  141.4539  160.1677 C.ar    1  UNL1        0.1721
     17 C         140.5954  140.6140  159.7224 C.ar    1  UNL1        0.0371
     18 O         143.0705  140.8070  160.4882 O.3     1  UNL1       -0.4684
     19 C         144.2308  141.6469  160.9334 C.3     1  UNL1        0.2526
     20 C         144.0764  143.1336  161.0581 C.3     1  UNL1        0.2526
     21 O         142.7616  143.7806  160.7376 O.3     1  UNL1       -0.4684
     22 C         139.2328  138.7715  165.5362 C.3     1  UNL1        0.0604
     23 O         138.0861  140.0840  170.3575 O.2     1  UNL1       -0.2670
     24 C         139.3307  140.7506  169.8510 C.ar    1  UNL1        0.2611
     25 C         140.0933  141.6890  170.7386 C.ar    1  UNL1        0.0623
     26 C         141.3379  142.3556  170.2320 C.ar    1  UNL1        0.0254
     27 C         141.8200  142.0838  168.8379 C.ar    1  UNL1        0.0972
     28 N         143.0132  142.6010  168.0769 N.ar    1  UNL1       -0.2400
     29 C         143.3715  142.2338  166.6674 C.ar    1  UNL1        0.1282
     30 C         142.5089  141.2767  165.8994 C.ar    1  UNL1        0.1588
     31 F         142.8672  140.9095  164.4898 F       1  UNL1       -0.2027
     32 C         141.2880  140.6868  166.5408 C.ar    1  UNL1        0.0500
     33 C         141.0574  141.1454  167.9503 C.ar    1  UNL1        0.0806
     34 N         139.8128  140.4788  168.4568 N.ar    1  UNL1       -0.2915
     35 C         139.2742  139.6083  167.3604 C.3     1  UNL1        0.1402
     36 C         140.1859  139.7368  166.1763 C.3     1  UNL1        0.1335
     37 O         140.8984  139.6636  164.8583 O.3     1  UNL1       -0.3806
     38 H         140.4220  139.0607  164.2663 H       1  UNL1        0.2108
@<TRIPOS>BOND
     1    23    24    2
     2    24    25   ar
     3    25    26   ar
     4    26    27   ar
     5    27    28   ar
     6    28    29   ar
     7    29    30   ar
     8    30    31    1
     9    30    32   ar
    10    32    33   ar
    11    33    34   ar
    12    34    35    1
    13    35    36    1
    14    36    37    1
    15    36    22    1
    16    22     1    1
    17     1     2    1
    18     2     3    1
    19     3     4    1
    20     4     9    1
    21     9    11    1
    22    11    12    1
    23    12    13   ar
    24    13    14   ar
    25    14    15   ar
    26    15    16   ar
    27    16    17   ar
    28    16    18    1
    29    18    19    1
    30    19    20    1
    31    20    21    1
    32     4     5    1
    33     5     6    1
    34     4     7    1
    35     7     8    1
    36    34    24   ar
    37     6     1    1
    38    33    27   ar
    39     8     1    1
    40    36    32    1
    41    17    12   ar
    42    21    15    1
    43    37    38    1
    44     9    10    1
@<TRIPOS>MOLECULE
*****
 38 44 0 0 0
SMALL
GASTEIGER

@<TRIPOS>ATOM
      1 C         141.4578  143.7224  164.8943 C.3     1  UNL1        0.0955
      2 C         139.9829  143.7093  165.1681 C.3     1  UNL1        0.0287
      3 C         139.3902  142.6368  166.0332 C.3     1  UNL1        0.0193
      4 C         140.2722  141.5773  166.6244 C.3     1  UNL1        0.0700
      5 C         141.7469  141.5903  166.3505 C.3     1  UNL1        0.0193
      6 C         142.3397  142.6628  165.4855 C.3     1  UNL1        0.0287
      7 C         140.6428  142.1446  166.1565 C.3     1  UNL1        0.1562
      8 O         141.1787  143.1144  165.3744 O.3     1  UNL1       -0.3571
      9 N         139.6794  140.5047  167.4894 N.3     1  UNL1       -0.2939
     10 H         139.0479  140.9686  168.1424 H       1  UNL1        0.1235
     11 C         138.9077  139.3796  166.8660 C.3     1  UNL1        0.0957
     12 C         139.1851  138.9748  165.4485 C.ar    1  UNL1       -0.0032
     13 C         140.2249  137.9341  165.1556 C.ar    1  UNL1        0.0004
     14 C         140.5024  137.5293  163.7381 C.ar    1  UNL1        0.0398
     15 C         139.7401  138.1652  162.6136 C.ar    1  UNL1        0.1724
     16 C         138.7003  139.2059  162.9065 C.ar    1  UNL1        0.1721
     17 C         138.4228  139.6107  164.3240 C.ar    1  UNL1        0.0371
     18 O         137.9380  139.8418  161.7821 O.3     1  UNL1       -0.4684
     19 C         138.2154  139.4369  160.3647 C.3     1  UNL1        0.2526
     20 C         139.2551  138.3963  160.0717 C.3     1  UNL1        0.2526
     21 O         140.0175  137.7603  161.1962 O.3     1  UNL1       -0.4684
     22 C         142.0505  144.7949  164.0292 C.3     1  UNL1        0.0604
     23 O         145.3614  141.8298  161.4741 O.2     1  UNL1       -0.2670
     24 C         144.3648  142.5008  160.5760 C.ar    1  UNL1        0.2611
     25 C         144.4124  142.2663  159.0952 C.ar    1  UNL1        0.0623
     26 C         143.4158  142.9373  158.1972 C.ar    1  UNL1        0.0254
     27 C         142.3716  143.8428  158.7798 C.ar    1  UNL1        0.0972
     28 N         141.2648  144.6345  158.1328 N.ar    1  UNL1       -0.2400
     29 C         140.2836  145.5088  158.8558 C.ar    1  UNL1        0.1282
     30 C         140.3594  145.6468  160.3475 C.ar    1  UNL1        0.1588
     31 F         139.3781  146.5211  161.0706 F       1  UNL1       -0.2027
     32 C         141.4164  144.9107  161.1161 C.ar    1  UNL1        0.0500
     33 C         142.3239  144.0774  160.2606 C.ar    1  UNL1        0.0806
     34 N         143.3205  143.4064  161.1587 N.ar    1  UNL1       -0.2915
     35 C         143.0289  143.8250  162.5692 C.3     1  UNL1        0.1402
     36 C         141.8521  144.7548  162.5430 C.3     1  UNL1        0.1335
     37 O         140.7168  145.6929  162.8274 O.3     1  UNL1       -0.3806
     38 H         140.6664  145.8596  163.7816 H       1  UNL1        0.2108
@<TRIPOS>BOND
     1    23    24    2
     2    24    25   ar
     3    25    26   ar
     4    26    27   ar
     5    27    28   ar
     6    28    29   ar
     7    29    30   ar
     8    30    31    1
     9    30    32   ar
    10    32    33   ar
    11    33    34   ar
    12    34    35    1
    13    35    36    1
    14    36    37    1
    15    36    22    1
    16    22     1    1
    17     1     2    1
    18     2     3    1
    19     3     4    1
    20     4     9    1
    21     9    11    1
    22    11    12    1
    23    12    13   ar
    24    13    14   ar
    25    14    15   ar
    26    15    16   ar
    27    16    17   ar
    28    16    18    1
    29    18    19    1
    30    19    20    1
    31    20    21    1
    32     4     5    1
    33     5     6    1
    34     4     7    1
    35     7     8    1
    36    34    24   ar
    37     6     1    1
    38    33    27   ar
    39     8     1    1
    40    36    32    1
    41    17    12   ar
    42    21    15    1
    43    37    38    1
    44     9    10    1
@<TRIPOS>MOLECULE
*****
 38 44 0 0 0
SMALL
GASTEIGER

@<TRIPOS>ATOM
      1 C         137.8868  140.6705  161.9488 C.3     1  UNL1        0.0955
      2 C         137.7147  140.5201  163.4314 C.3     1  UNL1        0.0287
      3 C         137.6596  141.7367  164.3072 C.3     1  UNL1        0.0193
      4 C         137.7766  143.1035  163.7006 C.3     1  UNL1        0.0700
      5 C         137.9486  143.2538  162.2181 C.3     1  UNL1        0.0193
      6 C         138.0037  142.0373  161.3422 C.3     1  UNL1        0.0287
      7 C         137.8124  142.4664  163.1801 C.3     1  UNL1        0.1562
      8 O         137.8622  141.3664  162.3882 O.3     1  UNL1       -0.3571
      9 N         137.7215  144.3200  164.5764 N.3     1  UNL1       -0.2939
     10 H         137.0666  144.1110  165.3299 H       1  UNL1        0.1235
     11 C         138.9731  144.8369  165.2215 C.3     1  UNL1        0.0957
     12 C         140.3143  144.4585  164.6664 C.ar    1  UNL1       -0.0032
     13 C         140.9408  145.2901  163.5866 C.ar    1  UNL1        0.0004
     14 C         142.2819  144.9119  163.0315 C.ar    1  UNL1        0.0398
     15 C         142.9967  143.7020  163.5561 C.ar    1  UNL1        0.1724
     16 C         142.3703  142.8704  164.6359 C.ar    1  UNL1        0.1721
     17 C         141.0291  143.2487  165.1911 C.ar    1  UNL1        0.0371
     18 O         143.0849  141.6605  165.1607 O.3     1  UNL1       -0.4684
     19 C         144.4261  141.2822  164.6055 C.3     1  UNL1        0.2526
     20 C         145.0525  142.1137  163.5258 C.3     1  UNL1        0.2526
     21 O         144.3379  143.3237  163.0010 O.3     1  UNL1       -0.4684
     22 C         137.9419  139.4539  161.0730 C.3     1  UNL1        0.0604
     23 O         141.9573  138.6148  164.1479 O.2     1  UNL1       -0.2670
     24 C         142.2898  138.4493  162.6946 C.ar    1  UNL1        0.2611
     25 C         143.6825  138.0751  162.2818 C.ar    1  UNL1        0.0623
     26 C         144.0150  137.9096  160.8285 C.ar    1  UNL1        0.0254
     27 C         142.9549  138.1183  159.7881 C.ar    1  UNL1        0.0972
     28 N         143.0004  138.0223  158.2851 N.ar    1  UNL1       -0.2400
     29 C         141.8420  138.2624  157.3629 C.ar    1  UNL1        0.1282
     30 C         140.5009  138.6320  157.9240 C.ar    1  UNL1        0.1588
     31 F         139.3425  138.8721  157.0018 F       1  UNL1       -0.2027
     32 C         140.3182  138.7614  159.4072 C.ar    1  UNL1        0.0500
     33 C         141.5623  138.4925  160.2009 C.ar    1  UNL1        0.0806
     34 N         141.2297  138.6580  161.6542 N.ar    1  UNL1       -0.2915
     35 C         139.7801  139.0292  161.7586 C.3     1  UNL1        0.1402
     36 C         139.2168  139.0931  160.3699 C.3     1  UNL1        0.1335
     37 O         138.3869  139.2324  159.1282 O.3     1  UNL1       -0.3806
     38 H         137.4796  139.4747  159.3711 H       1  UNL1        0.2108
@<TRIPOS>BOND
     1    23    24    2
     2    24    25   ar
     3    25    26   ar
     4    26    27   ar
     5    27    28   ar
     6    28    29   ar
     7    29    30   ar
     8    30    31    1
     9    30    32   ar
    10    32    33   ar
    11    33    34   ar
    12    34    35    1
    13    35    36    1
    14    36    37    1
    15    36    22    1
    16    22     1    1
    17     1     2    1
    18     2     3    1
    19     3     4    1
    20     4     9    1
    21     9    11    1
    22    11    12    1
    23    12    13   ar
    24    13    14   ar
    25    14    15   ar
    26    15    16   ar
    27    16    17   ar
    28    16    18    1
    29    18    19    1
    30    19    20    1
    31    20    21    1
    32     4     5    1
    33     5     6    1
    34     4     7    1
    35     7     8    1
    36    34    24   ar
    37     6     1    1
    38    33    27   ar
    39     8     1    1
    40    36    32    1
    41    17    12   ar
    42    21    15    1
    43    37    38    1
    44     9    10    1
@<TRIPOS>MOLECULE
*****
 38 44 0 0 0
SMALL
GASTEIGER

@<TRIPOS>ATOM
      1 C         138.5121  138.3476  163.2217 C.3     1  UNL1        0.0955
      2 C         138.8189  137.2922  164.2427 C.3     1  UNL1        0.0287
      3 C         138.8492  137.6451  165.7003 C.3     1  UNL1        0.0193
      4 C         138.5729  139.0532  166.1370 C.3     1  UNL1        0.0700
      5 C         138.2662  140.1085  165.1161 C.3     1  UNL1        0.0193
      6 C         138.2358  139.7557  163.6584 C.3     1  UNL1        0.0287
      7 C         138.5449  138.9077  165.3269 C.3     1  UNL1        0.1562
      8 O         138.5175  138.5887  164.0090 O.3     1  UNL1       -0.3571
      9 N         138.6033  139.4061  167.5946 N.3     1  UNL1       -0.2939
     10 H         138.3631  138.5580  168.1079 H       1  UNL1        0.1235
     11 C         139.8613  139.9432  168.2101 C.3     1  UNL1        0.0957
     12 C         140.9732  140.4382  167.3333 C.ar    1  UNL1       -0.0032
     13 C         141.1218  141.9070  167.0679 C.ar    1  UNL1        0.0004
     14 C         142.2336  142.4021  166.1912 C.ar    1  UNL1        0.0398
     15 C         143.1969  141.4283  165.5798 C.ar    1  UNL1        0.1724
     16 C         143.0483  139.9595  165.8451 C.ar    1  UNL1        0.1721
     17 C         141.9365  139.4644  166.7219 C.ar    1  UNL1        0.0371
     18 O         144.0116  138.9856  165.2338 O.3     1  UNL1       -0.4684
     19 C         145.1234  139.4807  164.3570 C.3     1  UNL1        0.2526
     20 C         145.2721  140.9495  164.0916 C.3     1  UNL1        0.2526
     21 O         144.3088  141.9234  164.7030 O.3     1  UNL1       -0.4684
     22 C         138.4818  137.9947  161.7641 C.3     1  UNL1        0.0604
     23 O         137.0999  140.6582  157.6074 O.2     1  UNL1       -0.2670
     24 C         138.5812  140.4388  157.6947 C.ar    1  UNL1        0.2611
     25 C         139.4840  140.9815  156.6269 C.ar    1  UNL1        0.0623
     26 C         140.9653  140.7621  156.7142 C.ar    1  UNL1        0.0254
     27 C         141.5438  140.0000  157.8694 C.ar    1  UNL1        0.0972
     28 N         142.9650  139.6340  158.2110 N.ar    1  UNL1       -0.2400
     29 C         143.3964  138.8566  159.4190 C.ar    1  UNL1        0.1282
     30 C         142.3742  138.3761  160.4061 C.ar    1  UNL1        0.1588
     31 F         142.8056  137.5987  161.6141 F       1  UNL1       -0.2027
     32 C         140.9206  138.6731  160.1850 C.ar    1  UNL1        0.0500
     33 C         140.6410  139.4573  158.9373 C.ar    1  UNL1        0.0806
     34 N         139.1597  139.6767  158.8499 N.ar    1  UNL1       -0.2915
     35 C         138.5238  139.0280  160.0436 C.3     1  UNL1        0.1402
     36 C         139.6121  138.4077  160.8688 C.3     1  UNL1        0.1335
     37 O         140.4641  137.7011  161.8811 O.3     1  UNL1       -0.3806
     38 H         139.9003  137.3409  162.5833 H       1  UNL1        0.2108
@<TRIPOS>BOND
     1    23    24    2
     2    24    25   ar
     3    25    26   ar
     4    26    27   ar
     5    27    28   ar
     6    28    29   ar
     7    29    30   ar
     8    30    31    1
     9    30    32   ar
    10    32    33   ar
    11    33    34   ar
    12    34    35    1
    13    35    36    1
    14    36    37    1
    15    36    22    1
    16    22     1    1
    17     1     2    1
    18     2     3    1
    19     3     4    1
    20     4     9    1
    21     9    11    1
    22    11    12    1
    23    12    13   ar
    24    13    14   ar
    25    14    15   ar
    26    15    16   ar
    27    16    17   ar
    28    16    18    1
    29    18    19    1
    30    19    20    1
    31    20    21    1
    32     4     5    1
    33     5     6    1
    34     4     7    1
    35     7     8    1
    36    34    24   ar
    37     6     1    1
    38    33    27   ar
    39     8     1    1
    40    36    32    1
    41    17    12   ar
    42    21    15    1
    43    37    38    1
    44     9    10    1
@<TRIPOS>MOLECULE
*****
 38 44 0 0 0
SMALL
GASTEIGER

@<TRIPOS>ATOM
      1 C         140.0971  138.1861  164.3909 C.3     1  UNL1        0.0955
      2 C         138.8401  138.8353  164.8898 C.3     1  UNL1        0.0287
      3 C         138.8757  139.6905  166.1216 C.3     1  UNL1        0.0193
      4 C         140.1680  139.8965  166.8546 C.3     1  UNL1        0.0700
      5 C         141.4249  139.2474  166.3558 C.3     1  UNL1        0.0193
      6 C         141.3895  138.3921  165.1239 C.3     1  UNL1        0.0287
      7 C         140.1981  139.4193  166.1842 C.3     1  UNL1        0.1562
      8 O         140.1660  138.6461  165.0704 O.3     1  UNL1       -0.3571
      9 N         140.2035  140.7517  168.0865 N.3     1  UNL1       -0.2939
     10 H         140.8881  140.3329  168.7160 H       1  UNL1        0.1235
     11 C         140.5479  142.2076  167.9789 C.3     1  UNL1        0.0957
     12 C         140.8485  142.8102  166.6386 C.ar    1  UNL1       -0.0032
     13 C         142.2274  142.6994  166.0587 C.ar    1  UNL1        0.0004
     14 C         142.5281  143.3020  164.7183 C.ar    1  UNL1        0.0398
     15 C         141.4498  144.0154  163.9579 C.ar    1  UNL1        0.1724
     16 C         140.0709  144.1263  164.5378 C.ar    1  UNL1        0.1721
     17 C         139.7702  143.5237  165.8781 C.ar    1  UNL1        0.0371
     18 O         138.9926  144.8397  163.7774 O.3     1  UNL1       -0.4684
     19 C         139.2932  145.4423  162.4370 C.3     1  UNL1        0.2526
     20 C         140.6720  145.3315  161.8571 C.3     1  UNL1        0.2526
     21 O         141.7504  144.6180  162.6175 O.3     1  UNL1       -0.4684
     22 C         140.0616  137.3309  163.1591 C.3     1  UNL1        0.0604
     23 O         136.6939  140.0058  160.3687 O.2     1  UNL1       -0.2670
     24 C         138.0418  139.9051  159.7184 C.ar    1  UNL1        0.2611
     25 C         138.2829  140.5536  158.3876 C.ar    1  UNL1        0.0623
     26 C         139.6308  140.4529  157.7373 C.ar    1  UNL1        0.0254
     27 C         140.7377  139.7035  158.4178 C.ar    1  UNL1        0.0972
     28 N         142.1644  139.4437  158.0087 N.ar    1  UNL1       -0.2400
     29 C         143.1694  138.6653  158.8051 C.ar    1  UNL1        0.1282
     30 C         142.7815  138.0716  160.1268 C.ar    1  UNL1        0.1588
     31 F         143.7865  137.2933  160.9232 F       1  UNL1       -0.2027
     32 C         141.3887  138.2562  160.6522 C.ar    1  UNL1        0.0500
     33 C         140.4967  139.0550  159.7487 C.ar    1  UNL1        0.0806
     34 N         139.1487  139.1557  160.3990 N.ar    1  UNL1       -0.2915
     35 C         139.2077  138.4192  161.7044 C.3     1  UNL1        0.1402
     36 C         140.5920  137.8633  161.8609 C.3     1  UNL1        0.1335
     37 O         141.8655  137.1961  162.2888 O.3     1  UNL1       -0.3806
     38 H         141.7332  136.7687  163.1494 H       1  UNL1        0.2108
@<TRIPOS>BOND
     1    23    24    2
     2    24    25   ar
     3    25    26   ar
     4    26    27   ar
     5    27    28   ar
     6    28    29   ar
     7    29    30   ar
     8    30    31    1
     9    30    32   ar
    10    32    33   ar
    11    33    34   ar
    12    34    35    1
    13    35    36    1
    14    36    37    1
    15    36    22    1
    16    22     1    1
    17     1     2    1
    18     2     3    1
    19     3     4    1
    20     4     9    1
    21     9    11    1
    22    11    12    1
    23    12    13   ar
    24    13    14   ar
    25    14    15   ar
    26    15    16   ar
    27    16    17   ar
    28    16    18    1
    29    18    19    1
    30    19    20    1
    31    20    21    1
    32     4     5    1
    33     5     6    1
    34     4     7    1
    35     7     8    1
    36    34    24   ar
    37     6     1    1
    38    33    27   ar
    39     8     1    1
    40    36    32    1
    41    17    12   ar
    42    21    15    1
    43    37    38    1
    44     9    10    1
@<TRIPOS>MOLECULE
*****
 38 44 0 0 0
SMALL
GASTEIGER

@<TRIPOS>ATOM
      1 C         137.9232  140.6419  162.0746 C.3     1  UNL1        0.0955
      2 C         137.8206  140.4914  163.5636 C.3     1  UNL1        0.0287
      3 C         137.7830  141.7084  164.4397 C.3     1  UNL1        0.0193
      4 C         137.8480  143.0759  163.8268 C.3     1  UNL1        0.0700
      5 C         137.9505  143.2265  162.3379 C.3     1  UNL1        0.0193
      6 C         137.9881  142.0095  161.4618 C.3     1  UNL1        0.0287
      7 C         137.8718  142.4386  163.3059 C.3     1  UNL1        0.1562
      8 O         137.9058  141.3382  162.5138 O.3     1  UNL1       -0.3571
      9 N         137.8104  144.2930  164.7028 N.3     1  UNL1       -0.2939
     10 H         137.1985  144.0716  165.4883 H       1  UNL1        0.1235
     11 C         139.0812  144.8381  165.2841 C.3     1  UNL1        0.0957
     12 C         140.4024  144.4679  164.6781 C.ar    1  UNL1       -0.0032
     13 C         140.9607  145.2769  163.5450 C.ar    1  UNL1        0.0004
     14 C         142.2820  144.9068  162.9389 C.ar    1  UNL1        0.0398
     15 C         143.0450  143.7278  163.4659 C.ar    1  UNL1        0.1724
     16 C         142.4867  142.9188  164.5990 C.ar    1  UNL1        0.1721
     17 C         141.1654  143.2889  165.2051 C.ar    1  UNL1        0.0371
     18 O         143.2495  141.7398  165.1261 O.3     1  UNL1       -0.4684
     19 C         144.5708  141.3697  164.5200 C.3     1  UNL1        0.2526
     20 C         145.1291  142.1786  163.3870 C.3     1  UNL1        0.2526
     21 O         144.3662  143.3577  162.8599 O.3     1  UNL1       -0.4684
     22 C         137.9608  139.4249  161.1986 C.3     1  UNL1        0.0604
     23 O         138.0492  139.7499  156.0830 O.2     1  UNL1       -0.2670
     24 C         139.3380  139.2421  156.6584 C.ar    1  UNL1        0.2611
     25 C         140.4786  138.8917  155.7495 C.ar    1  UNL1        0.0623
     26 C         141.7675  138.3839  156.3248 C.ar    1  UNL1        0.0254
     27 C         141.9157  138.2265  157.8091 C.ar    1  UNL1        0.0972
     28 N         143.0706  137.7487  158.6507 N.ar    1  UNL1       -0.2400
     29 C         143.0714  137.6440  160.1470 C.ar    1  UNL1        0.1282
     30 C         141.8503  138.0326  160.9267 C.ar    1  UNL1        0.1588
     31 F         141.8511  137.9279  162.4230 F       1  UNL1       -0.2027
     32 C         140.6284  138.5260  160.2100 C.ar    1  UNL1        0.0500
     33 C         140.7751  138.5769  158.7181 C.ar    1  UNL1        0.0806
     34 N         139.4863  139.0847  158.1427 N.ar    1  UNL1       -0.2915
     35 C         138.5431  139.3476  159.2791 C.3     1  UNL1        0.1402
     36 C         139.2490  139.0023  160.5568 C.3     1  UNL1        0.1335
     37 O         139.6856  138.7453  161.9686 O.3     1  UNL1       -0.3806
     38 H         138.9620  138.9655  162.5760 H       1  UNL1        0.2108
@<TRIPOS>BOND
     1    23    24    2
     2    24    25   ar
     3    25    26   ar
     4    26    27   ar
     5    27    28   ar
     6    28    29   ar
     7    29    30   ar
     8    30    31    1
     9    30    32   ar
    10    32    33   ar
    11    33    34   ar
    12    34    35    1
    13    35    36    1
    14    36    37    1
    15    36    22    1
    16    22     1    1
    17     1     2    1
    18     2     3    1
    19     3     4    1
    20     4     9    1
    21     9    11    1
    22    11    12    1
    23    12    13   ar
    24    13    14   ar
    25    14    15   ar
    26    15    16   ar
    27    16    17   ar
    28    16    18    1
    29    18    19    1
    30    19    20    1
    31    20    21    1
    32     4     5    1
    33     5     6    1
    34     4     7    1
    35     7     8    1
    36    34    24   ar
    37     6     1    1
    38    33    27   ar
    39     8     1    1
    40    36    32    1
    41    17    12   ar
    42    21    15    1
    43    37    38    1
    44     9    10    1
