@<TRIPOS>MOLECULE
*****
 35 39 0 0 0
SMALL
GASTEIGER

@<TRIPOS>ATOM
      1 N         140.5307  138.6133  162.0607 N.3     1  UNL1       -0.2702
      2 C         141.3337  139.5024  162.9633 C.3     1  UNL1        0.0747
      3 C         140.9040  139.7123  164.3850 C.3     1  UNL1        0.0463
      4 C         139.6714  139.0331  164.9041 C.3     1  UNL1        0.1146
      5 C         138.8685  138.1440  164.0015 C.3     1  UNL1        0.0463
      6 C         139.2981  137.9341  162.5798 C.3     1  UNL1        0.0747
      7 C         140.4744  139.9223  165.8068 C.3     1  UNL1        0.1268
      8 N         140.0447  140.1322  167.2285 N.am    1  UNL1       -0.2380
      9 C         138.8121  139.4530  167.7476 C.2     1  UNL1        0.2607
     10 O         138.3825  139.6630  169.1694 O.2     1  UNL1       -0.2718
     11 C         138.0092  138.5639  166.8450 C.3     1  UNL1        0.2274
     12 O         138.4388  138.3540  165.4232 O.3     1  UNL1       -0.3475
     13 C         140.8477  141.0213  168.1312 C.ar    1  UNL1        0.1575
     14 C         142.2548  140.6484  168.4932 C.ar    1  UNL1        0.0414
     15 C         143.0577  141.5375  169.3959 C.ar    1  UNL1        0.0651
     16 C         142.4536  142.7995  169.9365 C.ar    1  UNL1        0.2766
     17 O         143.2565  143.6886  170.8392 O.2     1  UNL1       -0.2655
     18 N         141.0465  143.1724  169.5745 N.ar    1  UNL1       -0.2134
     19 C         140.4423  144.4345  170.1152 C.3     1  UNL1        0.1571
     20 N         140.2435  142.2833  168.6719 N.ar    1  UNL1       -0.1513
     21 C         140.9604  138.4033  160.6389 C.3     1  UNL1        0.1063
     22 C         140.3869  139.2584  159.5481 C.3     1  UNL1        0.1483
     23 O         139.8855  138.6253  158.2841 O.3     1  UNL1       -0.3786
     24 H         139.5502  139.3137  157.6886 H       1  UNL1        0.2108
     25 C         142.5622  141.0042  158.4432 C.3     1  UNL1        0.0306
     26 C         141.4025  141.6195  159.1688 C.ar    1  UNL1       -0.0238
     27 C         140.3149  140.7467  159.7213 C.ar    1  UNL1        0.0015
     28 C         139.1552  141.3620  160.4469 C.ar    1  UNL1       -0.0020
     29 C         139.0831  142.8502  160.6200 C.ar    1  UNL1        0.0060
     30 C         140.1707  143.7231  160.0676 C.ar    1  UNL1        0.0748
     31 C         141.3304  143.1077  159.3420 C.ar    1  UNL1        0.0233
     32 C         142.2464  144.2141  158.9096 C.3     1  UNL1        0.2352
     33 O         141.6528  145.5132  159.3679 O.3     1  UNL1       -0.4404
     34 C         140.3700  145.2097  160.0836 C.2     1  UNL1        0.3413
     35 O         139.4483  146.2161  160.7060 O.2     1  UNL1       -0.2449
@<TRIPOS>BOND
     1    25    26    1
     2    26    27   ar
     3    27    22    1
     4    22    23    1
     5    22    21    1
     6    21     1    1
     7     1     2    1
     8     2     3    1
     9     3     4    1
    10     4     5    1
    11     5     6    1
    12     4     7    1
    13     7     8    1
    14     8    13    1
    15    13    14   ar
    16    14    15   ar
    17    15    16   ar
    18    16    17    2
    19    16    18   ar
    20    18    19    1
    21    18    20   ar
    22     8     9   am
    23     9    10    2
    24     9    11    1
    25    11    12    1
    26    27    28   ar
    27    28    29   ar
    28    29    30   ar
    29    30    31   ar
    30    31    32    1
    31    32    33    1
    32    33    34    1
    33    34    35    2
    34    31    26   ar
    35     6     1    1
    36    20    13   ar
    37    34    30    1
    38    12     4    1
    39    23    24    1
@<TRIPOS>MOLECULE
*****
 35 39 0 0 0
SMALL
GASTEIGER

@<TRIPOS>ATOM
      1 N         142.0346  138.7390  164.0934 N.3     1  UNL1       -0.2702
      2 C         141.6665  137.7269  163.0493 C.3     1  UNL1        0.0747
      3 C         142.0124  137.9737  161.6108 C.3     1  UNL1        0.0463
      4 C         142.7264  139.2325  161.2164 C.3     1  UNL1        0.1146
      5 C         143.0944  140.2446  162.2605 C.3     1  UNL1        0.0463
      6 C         142.7485  139.9979  163.6990 C.3     1  UNL1        0.0747
      7 C         142.3583  138.2204  160.1722 C.3     1  UNL1        0.1268
      8 N         142.7043  138.4672  158.7336 N.am    1  UNL1       -0.2380
      9 C         143.4182  139.7261  158.3392 C.2     1  UNL1        0.2607
     10 O         143.7641  139.9728  156.9006 O.2     1  UNL1       -0.2718
     11 C         143.7863  140.7381  159.3833 C.3     1  UNL1        0.2274
     12 O         143.4404  140.4914  160.8219 O.3     1  UNL1       -0.3475
     13 C         142.3362  137.4551  157.6894 C.ar    1  UNL1        0.1575
     14 C         141.0920  137.6393  156.8721 C.ar    1  UNL1        0.0414
     15 C         140.7239  136.6273  155.8280 C.ar    1  UNL1        0.0651
     16 C         141.6001  135.4311  155.6012 C.ar    1  UNL1        0.2766
     17 O         141.2320  134.4190  154.5570 O.2     1  UNL1       -0.2655
     18 N         142.8443  135.2469  156.4185 N.ar    1  UNL1       -0.2134
     19 C         143.7204  134.0506  156.1916 C.3     1  UNL1        0.1571
     20 N         143.2123  136.2589  157.4626 N.ar    1  UNL1       -0.1513
     21 C         141.6886  138.4923  165.5320 C.3     1  UNL1        0.1063
     22 C         142.5444  139.0716  166.6192 C.3     1  UNL1        0.1483
     23 O         143.9542  138.5921  166.7998 O.3     1  UNL1       -0.3786
     24 H         144.3643  139.0654  167.5406 H       1  UNL1        0.2108
     25 C         142.5276  138.6456  169.5887 C.3     1  UNL1        0.0306
     26 C         141.9820  139.9175  169.0105 C.ar    1  UNL1       -0.0238
     27 C         141.9904  140.1306  167.5257 C.ar    1  UNL1        0.0015
     28 C         141.4448  141.4026  166.9475 C.ar    1  UNL1       -0.0020
     29 C         140.8909  142.4615  167.8540 C.ar    1  UNL1        0.0060
     30 C         140.8825  142.2485  169.3387 C.ar    1  UNL1        0.0748
     31 C         141.4281  140.9765  169.9170 C.ar    1  UNL1        0.0233
     32 C         141.2879  141.0479  171.4087 C.3     1  UNL1        0.2352
     33 O         140.6557  142.3640  171.7524 O.3     1  UNL1       -0.4404
     34 C         140.4051  143.1060  170.4731 C.2     1  UNL1        0.3413
     35 O         139.7859  144.4666  170.3497 O.2     1  UNL1       -0.2449
@<TRIPOS>BOND
     1    25    26    1
     2    26    27   ar
     3    27    22    1
     4    22    23    1
     5    22    21    1
     6    21     1    1
     7     1     2    1
     8     2     3    1
     9     3     4    1
    10     4     5    1
    11     5     6    1
    12     4     7    1
    13     7     8    1
    14     8    13    1
    15    13    14   ar
    16    14    15   ar
    17    15    16   ar
    18    16    17    2
    19    16    18   ar
    20    18    19    1
    21    18    20   ar
    22     8     9   am
    23     9    10    2
    24     9    11    1
    25    11    12    1
    26    27    28   ar
    27    28    29   ar
    28    29    30   ar
    29    30    31   ar
    30    31    32    1
    31    32    33    1
    32    33    34    1
    33    34    35    2
    34    31    26   ar
    35     6     1    1
    36    20    13   ar
    37    34    30    1
    38    12     4    1
    39    23    24    1
@<TRIPOS>MOLECULE
*****
 35 39 0 0 0
SMALL
GASTEIGER

@<TRIPOS>ATOM
      1 N         141.9551  138.1887  162.4139 N.3     1  UNL1       -0.2702
      2 C         142.5074  138.9392  163.5894 C.3     1  UNL1        0.0747
      3 C         141.6698  139.1280  164.8193 C.3     1  UNL1        0.0463
      4 C         140.2800  138.5664  164.8738 C.3     1  UNL1        0.1146
      5 C         139.7277  137.8159  163.6983 C.3     1  UNL1        0.0463
      6 C         140.5653  137.6271  162.4684 C.3     1  UNL1        0.0747
      7 C         140.8323  139.3169  166.0494 C.3     1  UNL1        0.1268
      8 N         139.9947  139.5057  167.2793 N.am    1  UNL1       -0.2380
      9 C         138.6049  138.9441  167.3338 C.2     1  UNL1        0.2607
     10 O         137.7673  139.1329  168.5638 O.2     1  UNL1       -0.2718
     11 C         138.0526  138.1936  166.1583 C.3     1  UNL1        0.2274
     12 O         138.8902  138.0048  164.9283 O.3     1  UNL1       -0.3475
     13 C         140.5470  140.2562  168.4549 C.ar    1  UNL1        0.1575
     14 C         141.4034  139.5475  169.4620 C.ar    1  UNL1        0.0414
     15 C         141.9557  140.2979  170.6375 C.ar    1  UNL1        0.0651
     16 C         141.6515  141.7570  170.8059 C.ar    1  UNL1        0.2766
     17 O         142.2037  142.5075  171.9814 O.2     1  UNL1       -0.2655
     18 N         140.7950  142.4657  169.7988 N.ar    1  UNL1       -0.2134
     19 C         140.4908  143.9249  169.9673 C.3     1  UNL1        0.1571
     20 N         140.2428  141.7153  168.6233 N.ar    1  UNL1       -0.1513
     21 C         142.7927  137.9999  161.1839 C.3     1  UNL1        0.1063
     22 C         142.9344  139.1179  160.1941 C.3     1  UNL1        0.1483
     23 O         143.7239  138.9101  158.9358 O.3     1  UNL1       -0.3786
     24 H         143.7159  139.7256  158.4106 H       1  UNL1        0.2108
     25 C         144.4714  141.2834  161.5900 C.3     1  UNL1        0.0306
     26 C         143.0549  141.5266  161.1604 C.ar    1  UNL1       -0.0238
     27 C         142.2864  140.4439  160.4625 C.ar    1  UNL1        0.0015
     28 C         140.8700  140.6872  160.0330 C.ar    1  UNL1       -0.0020
     29 C         140.2220  142.0131  160.3014 C.ar    1  UNL1        0.0060
     30 C         140.9905  143.0958  160.9993 C.ar    1  UNL1        0.0748
     31 C         142.4070  142.8525  161.4289 C.ar    1  UNL1        0.0233
     32 C         142.9109  144.0999  162.0922 C.3     1  UNL1        0.2352
     33 O         141.8059  145.1141  162.0727 O.3     1  UNL1       -0.4404
     34 C         140.6191  144.4935  161.3973 C.2     1  UNL1        0.3413
     35 O         139.2934  145.1545  161.1612 O.2     1  UNL1       -0.2449
@<TRIPOS>BOND
     1    25    26    1
     2    26    27   ar
     3    27    22    1
     4    22    23    1
     5    22    21    1
     6    21     1    1
     7     1     2    1
     8     2     3    1
     9     3     4    1
    10     4     5    1
    11     5     6    1
    12     4     7    1
    13     7     8    1
    14     8    13    1
    15    13    14   ar
    16    14    15   ar
    17    15    16   ar
    18    16    17    2
    19    16    18   ar
    20    18    19    1
    21    18    20   ar
    22     8     9   am
    23     9    10    2
    24     9    11    1
    25    11    12    1
    26    27    28   ar
    27    28    29   ar
    28    29    30   ar
    29    30    31   ar
    30    31    32    1
    31    32    33    1
    32    33    34    1
    33    34    35    2
    34    31    26   ar
    35     6     1    1
    36    20    13   ar
    37    34    30    1
    38    12     4    1
    39    23    24    1
@<TRIPOS>MOLECULE
*****
 35 39 0 0 0
SMALL
GASTEIGER

@<TRIPOS>ATOM
      1 N         140.4319  138.2043  163.9981 N.3     1  UNL1       -0.2702
      2 C         140.1016  137.6448  162.6462 C.3     1  UNL1        0.0747
      3 C         140.9465  138.0028  161.4596 C.3     1  UNL1        0.0463
      4 C         142.1216  138.9203  161.6250 C.3     1  UNL1        0.1146
      5 C         142.4518  139.4798  162.9770 C.3     1  UNL1        0.0463
      6 C         141.6069  139.1218  164.1635 C.3     1  UNL1        0.0747
      7 C         141.7914  138.3608  160.2729 C.3     1  UNL1        0.1268
      8 N         142.6363  138.7188  159.0864 N.am    1  UNL1       -0.2380
      9 C         143.8114  139.6363  159.2518 C.2     1  UNL1        0.2607
     10 O         144.6563  139.9943  158.0651 O.2     1  UNL1       -0.2718
     11 C         144.1416  140.1958  160.6037 C.3     1  UNL1        0.2274
     12 O         143.2967  139.8378  161.7904 O.3     1  UNL1       -0.3475
     13 C         142.3061  138.1593  157.7343 C.ar    1  UNL1        0.1575
     14 C         141.1529  138.7163  156.9534 C.ar    1  UNL1        0.0414
     15 C         140.8227  138.1568  155.6014 C.ar    1  UNL1        0.0651
     16 C         141.6457  137.0404  155.0303 C.ar    1  UNL1        0.2766
     17 O         141.3155  136.4808  153.6783 O.2     1  UNL1       -0.2655
     18 N         142.7989  136.4833  155.8113 N.ar    1  UNL1       -0.2134
     19 C         143.6219  135.3668  155.2402 C.3     1  UNL1        0.1571
     20 N         143.1291  137.0428  157.1633 N.ar    1  UNL1       -0.1513
     21 C         139.5870  137.8463  165.1848 C.3     1  UNL1        0.1063
     22 C         138.4983  138.7736  165.6375 C.3     1  UNL1        0.1483
     23 O         137.5014  138.3168  166.6609 O.3     1  UNL1       -0.3786
     24 H         136.8710  139.0320  166.8400 H       1  UNL1        0.2108
     25 C         139.9119  141.0495  166.9874 C.3     1  UNL1        0.0306
     26 C         139.1134  141.2957  165.7417 C.ar    1  UNL1       -0.0238
     27 C         138.4066  140.1578  165.0668 C.ar    1  UNL1        0.0015
     28 C         137.6081  140.4040  163.8211 C.ar    1  UNL1       -0.0020
     29 C         137.5164  141.7882  163.2504 C.ar    1  UNL1        0.0060
     30 C         138.2231  142.9260  163.9253 C.ar    1  UNL1        0.0748
     31 C         139.0216  142.6798  165.1710 C.ar    1  UNL1        0.0233
     32 C         139.6061  143.9886  165.6132 C.3     1  UNL1        0.2352
     33 O         139.1688  145.0437  164.6408 O.3     1  UNL1       -0.4404
     34 C         138.3141  144.3870  163.5976 C.2     1  UNL1        0.3413
     35 O         137.6644  145.0711  162.4315 O.2     1  UNL1       -0.2449
@<TRIPOS>BOND
     1    25    26    1
     2    26    27   ar
     3    27    22    1
     4    22    23    1
     5    22    21    1
     6    21     1    1
     7     1     2    1
     8     2     3    1
     9     3     4    1
    10     4     5    1
    11     5     6    1
    12     4     7    1
    13     7     8    1
    14     8    13    1
    15    13    14   ar
    16    14    15   ar
    17    15    16   ar
    18    16    17    2
    19    16    18   ar
    20    18    19    1
    21    18    20   ar
    22     8     9   am
    23     9    10    2
    24     9    11    1
    25    11    12    1
    26    27    28   ar
    27    28    29   ar
    28    29    30   ar
    29    30    31   ar
    30    31    32    1
    31    32    33    1
    32    33    34    1
    33    34    35    2
    34    31    26   ar
    35     6     1    1
    36    20    13   ar
    37    34    30    1
    38    12     4    1
    39    23    24    1
@<TRIPOS>MOLECULE
*****
 35 39 0 0 0
SMALL
GASTEIGER

@<TRIPOS>ATOM
      1 N         139.5367  137.9065  163.6143 N.3     1  UNL1       -0.2702
      2 C         138.6602  137.9446  162.3977 C.3     1  UNL1        0.0747
      3 C         139.2724  138.0948  161.0367 C.3     1  UNL1        0.0463
      4 C         140.7613  138.2069  160.8922 C.3     1  UNL1        0.1146
      5 C         141.6378  138.1687  162.1088 C.3     1  UNL1        0.0463
      6 C         141.0256  138.0185  163.4699 C.3     1  UNL1        0.0747
      7 C         139.8847  138.2450  159.6755 C.3     1  UNL1        0.1268
      8 N         140.4969  138.3952  158.3145 N.am    1  UNL1       -0.2380
      9 C         141.9858  138.5072  158.1700 C.2     1  UNL1        0.2607
     10 O         142.5980  138.6574  156.8088 O.2     1  UNL1       -0.2718
     11 C         142.8623  138.4691  159.3866 C.3     1  UNL1        0.2274
     12 O         142.2501  138.3189  160.7477 O.3     1  UNL1       -0.3475
     13 C         139.6204  138.4333  157.0978 C.ar    1  UNL1        0.1575
     14 C         139.5601  137.2489  156.1794 C.ar    1  UNL1        0.0414
     15 C         138.6836  137.2870  154.9628 C.ar    1  UNL1        0.0651
     16 C         137.8674  138.5096  154.6645 C.ar    1  UNL1        0.2766
     17 O         136.9908  138.5477  153.4478 O.2     1  UNL1       -0.2655
     18 N         137.9276  139.6940  155.5829 N.ar    1  UNL1       -0.2134
     19 C         137.1113  140.9166  155.2846 C.3     1  UNL1        0.1571
     20 N         138.8041  139.6559  156.7995 N.ar    1  UNL1       -0.1513
     21 C         138.9245  137.7563  164.9755 C.3     1  UNL1        0.1063
     22 C         138.2219  138.9175  165.6141 C.3     1  UNL1        0.1483
     23 O         137.3973  138.7080  166.8495 O.3     1  UNL1       -0.3786
     24 H         137.0151  139.5541  167.1305 H       1  UNL1        0.2108
     25 C         140.2575  140.8439  166.6843 C.3     1  UNL1        0.0306
     26 C         139.3616  141.2515  165.5524 C.ar    1  UNL1       -0.0238
     27 C         138.3438  140.2883  165.0173 C.ar    1  UNL1        0.0015
     28 C         137.4479  140.6959  163.8854 C.ar    1  UNL1       -0.0020
     29 C         137.5697  142.0666  163.2887 C.ar    1  UNL1        0.0060
     30 C         138.5875  143.0298  163.8238 C.ar    1  UNL1        0.0748
     31 C         139.4835  142.6222  164.9557 C.ar    1  UNL1        0.0233
     32 C         140.3861  143.7778  165.2716 C.3     1  UNL1        0.2352
     33 O         140.0481  144.8996  164.3349 O.3     1  UNL1       -0.4404
     34 C         138.9365  144.4373  163.4402 C.2     1  UNL1        0.3413
     35 O         138.2877  145.2413  162.3526 O.2     1  UNL1       -0.2449
@<TRIPOS>BOND
     1    25    26    1
     2    26    27   ar
     3    27    22    1
     4    22    23    1
     5    22    21    1
     6    21     1    1
     7     1     2    1
     8     2     3    1
     9     3     4    1
    10     4     5    1
    11     5     6    1
    12     4     7    1
    13     7     8    1
    14     8    13    1
    15    13    14   ar
    16    14    15   ar
    17    15    16   ar
    18    16    17    2
    19    16    18   ar
    20    18    19    1
    21    18    20   ar
    22     8     9   am
    23     9    10    2
    24     9    11    1
    25    11    12    1
    26    27    28   ar
    27    28    29   ar
    28    29    30   ar
    29    30    31   ar
    30    31    32    1
    31    32    33    1
    32    33    34    1
    33    34    35    2
    34    31    26   ar
    35     6     1    1
    36    20    13   ar
    37    34    30    1
    38    12     4    1
    39    23    24    1
@<TRIPOS>MOLECULE
*****
 35 39 0 0 0
SMALL
GASTEIGER

@<TRIPOS>ATOM
      1 N         143.0024  138.2320  157.5217 N.3     1  UNL1       -0.2702
      2 C         142.7915  137.8081  158.9450 C.3     1  UNL1        0.0747
      3 C         143.1301  138.7466  160.0650 C.3     1  UNL1        0.0463
      4 C         143.6796  140.1089  159.7618 C.3     1  UNL1        0.1146
      5 C         143.8905  140.5329  158.3386 C.3     1  UNL1        0.0463
      6 C         143.5519  139.5944  157.2185 C.3     1  UNL1        0.0747
      7 C         143.4688  139.6850  161.1852 C.3     1  UNL1        0.1268
      8 N         143.8074  140.6235  162.3053 N.am    1  UNL1       -0.2380
      9 C         144.3569  141.9859  162.0021 C.2     1  UNL1        0.2607
     10 O         144.6955  142.9243  163.1222 O.2     1  UNL1       -0.2718
     11 C         144.5678  142.4098  160.5788 C.3     1  UNL1        0.2274
     12 O         144.2292  141.4713  159.4586 O.3     1  UNL1       -0.3475
     13 C         143.5965  140.1996  163.7286 C.ar    1  UNL1        0.1575
     14 C         144.4777  139.1489  164.3367 C.ar    1  UNL1        0.0414
     15 C         144.2669  138.7250  165.7599 C.ar    1  UNL1        0.0651
     16 C         143.1749  139.3517  166.5752 C.ar    1  UNL1        0.2766
     17 O         142.9640  138.9278  167.9986 O.2     1  UNL1       -0.2655
     18 N         142.2937  140.4023  165.9672 N.ar    1  UNL1       -0.2134
     19 C         141.2016  141.0290  166.7825 C.3     1  UNL1        0.1571
     20 N         142.5045  140.8263  164.5439 N.ar    1  UNL1       -0.1513
     21 C         142.6638  137.2936  156.4015 C.3     1  UNL1        0.1063
     22 C         143.6910  136.3222  155.9004 C.3     1  UNL1        0.1483
     23 O         144.9937  136.8246  155.3521 O.3     1  UNL1       -0.3786
     24 H         145.5392  136.0722  155.0741 H       1  UNL1        0.2108
     25 C         142.2597  134.9901  153.6252 C.3     1  UNL1        0.0306
     26 C         142.7000  134.1824  154.8100 C.ar    1  UNL1       -0.0238
     27 C         143.4157  134.8484  155.9476 C.ar    1  UNL1        0.0015
     28 C         143.8560  134.0408  157.1324 C.ar    1  UNL1       -0.0020
     29 C         143.5807  132.5670  157.1796 C.ar    1  UNL1        0.0060
     30 C         142.8650  131.9010  156.0420 C.ar    1  UNL1        0.0748
     31 C         142.4247  132.7087  154.8572 C.ar    1  UNL1        0.0233
     32 C         141.7444  131.7833  153.8923 C.3     1  UNL1        0.2352
     33 O         141.7644  130.4037  154.4808 O.3     1  UNL1       -0.4404
     34 C         142.4569  130.4764  155.8093 C.2     1  UNL1        0.3413
     35 O         142.6989  129.3265  156.7416 O.2     1  UNL1       -0.2449
@<TRIPOS>BOND
     1    25    26    1
     2    26    27   ar
     3    27    22    1
     4    22    23    1
     5    22    21    1
     6    21     1    1
     7     1     2    1
     8     2     3    1
     9     3     4    1
    10     4     5    1
    11     5     6    1
    12     4     7    1
    13     7     8    1
    14     8    13    1
    15    13    14   ar
    16    14    15   ar
    17    15    16   ar
    18    16    17    2
    19    16    18   ar
    20    18    19    1
    21    18    20   ar
    22     8     9   am
    23     9    10    2
    24     9    11    1
    25    11    12    1
    26    27    28   ar
    27    28    29   ar
    28    29    30   ar
    29    30    31   ar
    30    31    32    1
    31    32    33    1
    32    33    34    1
    33    34    35    2
    34    31    26   ar
    35     6     1    1
    36    20    13   ar
    37    34    30    1
    38    12     4    1
    39    23    24    1
@<TRIPOS>MOLECULE
*****
 35 39 0 0 0
SMALL
GASTEIGER

@<TRIPOS>ATOM
      1 N         140.4523  139.0697  161.7859 N.3     1  UNL1       -0.2702
      2 C         141.2489  139.9279  162.7233 C.3     1  UNL1        0.0747
      3 C         140.8551  140.0271  164.1672 C.3     1  UNL1        0.0463
      4 C         139.6645  139.2681  164.6738 C.3     1  UNL1        0.1146
      5 C         138.8678  138.4099  163.7364 C.3     1  UNL1        0.0463
      6 C         139.2617  138.3107  162.2924 C.3     1  UNL1        0.0747
      7 C         140.4612  140.1263  165.6113 C.3     1  UNL1        0.1268
      8 N         140.0674  140.2256  167.0552 N.am    1  UNL1       -0.2380
      9 C         138.8768  139.4666  167.5617 C.2     1  UNL1        0.2607
     10 O         138.4830  139.5659  169.0057 O.2     1  UNL1       -0.2718
     11 C         138.0801  138.6084  166.6243 C.3     1  UNL1        0.2274
     12 O         138.4740  138.5092  165.1803 O.3     1  UNL1       -0.3475
     13 C         140.8641  141.0838  167.9927 C.ar    1  UNL1        0.1575
     14 C         142.2767  140.7115  168.3330 C.ar    1  UNL1        0.0414
     15 C         143.0734  141.5696  169.2705 C.ar    1  UNL1        0.0651
     16 C         142.4574  142.8001  169.8675 C.ar    1  UNL1        0.2766
     17 O         143.2541  143.6583  170.8050 O.2     1  UNL1       -0.2655
     18 N         141.0448  143.1724  169.5272 N.ar    1  UNL1       -0.2134
     19 C         140.4289  144.4029  170.1243 C.3     1  UNL1        0.1571
     20 N         140.2481  142.3142  168.5897 N.ar    1  UNL1       -0.1513
     21 C         140.8461  138.9704  160.3419 C.3     1  UNL1        0.1063
     22 C         142.1734  138.3819  159.9653 C.3     1  UNL1        0.1483
     23 O         142.7952  137.3221  160.8256 O.3     1  UNL1       -0.3786
     24 H         143.6448  137.0524  160.4431 H       1  UNL1        0.2108
     25 C         143.8341  140.8790  160.0447 C.3     1  UNL1        0.0306
     26 C         143.7093  140.1017  158.7680 C.ar    1  UNL1       -0.0238
     27 C         142.8789  138.8532  158.7282 C.ar    1  UNL1        0.0015
     28 C         142.7541  138.0758  157.4514 C.ar    1  UNL1       -0.0020
     29 C         143.4596  138.5470  156.2144 C.ar    1  UNL1        0.0060
     30 C         144.2899  139.7955  156.2542 C.ar    1  UNL1        0.0748
     31 C         144.4148  140.5729  157.5310 C.ar    1  UNL1        0.0233
     32 C         145.2967  141.7574  157.2681 C.3     1  UNL1        0.2352
     33 O         145.7169  141.7122  155.8289 O.3     1  UNL1       -0.4404
     34 C         145.0947  140.4997  155.2023 C.2     1  UNL1        0.3413
     35 O         145.2499  140.0672  153.7744 O.2     1  UNL1       -0.2449
@<TRIPOS>BOND
     1    25    26    1
     2    26    27   ar
     3    27    22    1
     4    22    23    1
     5    22    21    1
     6    21     1    1
     7     1     2    1
     8     2     3    1
     9     3     4    1
    10     4     5    1
    11     5     6    1
    12     4     7    1
    13     7     8    1
    14     8    13    1
    15    13    14   ar
    16    14    15   ar
    17    15    16   ar
    18    16    17    2
    19    16    18   ar
    20    18    19    1
    21    18    20   ar
    22     8     9   am
    23     9    10    2
    24     9    11    1
    25    11    12    1
    26    27    28   ar
    27    28    29   ar
    28    29    30   ar
    29    30    31   ar
    30    31    32    1
    31    32    33    1
    32    33    34    1
    33    34    35    2
    34    31    26   ar
    35     6     1    1
    36    20    13   ar
    37    34    30    1
    38    12     4    1
    39    23    24    1
@<TRIPOS>MOLECULE
*****
 35 39 0 0 0
SMALL
GASTEIGER

@<TRIPOS>ATOM
      1 N         139.5116  141.0973  163.5572 N.3     1  UNL1       -0.2702
      2 C         140.5145  140.5141  162.6064 C.3     1  UNL1        0.0747
      3 C         141.0888  141.3609  161.5096 C.3     1  UNL1        0.0463
      4 C         140.6602  142.7910  161.3636 C.3     1  UNL1        0.1146
      5 C         139.6573  143.3742  162.3144 C.3     1  UNL1        0.0463
      6 C         139.0830  142.5273  163.4112 C.3     1  UNL1        0.0747
      7 C         141.6632  142.2078  160.4127 C.3     1  UNL1        0.1268
      8 N         142.2375  143.0547  159.3160 N.am    1  UNL1       -0.2380
      9 C         141.8089  144.4847  159.1700 C.2     1  UNL1        0.2607
     10 O         142.3832  145.3316  158.0732 O.2     1  UNL1       -0.2718
     11 C         140.8060  145.0679  160.1208 C.3     1  UNL1        0.2274
     12 O         140.2316  144.2210  161.2177 O.3     1  UNL1       -0.3475
     13 C         143.2404  142.4715  158.3651 C.ar    1  UNL1        0.1575
     14 C         142.8189  141.4193  157.3827 C.ar    1  UNL1        0.0414
     15 C         143.8217  140.8362  156.4318 C.ar    1  UNL1        0.0651
     16 C         145.2461  141.3052  156.4634 C.ar    1  UNL1        0.2766
     17 O         146.2491  140.7220  155.5125 O.2     1  UNL1       -0.2655
     18 N         145.6677  142.3574  157.4459 N.ar    1  UNL1       -0.2134
     19 C         147.0922  142.8264  157.4774 C.3     1  UNL1        0.1571
     20 N         144.6648  142.9406  158.3967 N.ar    1  UNL1       -0.1513
     21 C         138.9372  140.2504  164.6540 C.3     1  UNL1        0.1063
     22 C         139.8495  139.5550  165.6205 C.3     1  UNL1        0.1483
     23 O         140.5004  138.2590  165.2377 O.3     1  UNL1       -0.3786
     24 H         141.0538  137.9463  165.9704 H       1  UNL1        0.2108
     25 C         142.2895  141.2431  166.0640 C.3     1  UNL1        0.0306
     26 C         141.3308  140.9997  167.1917 C.ar    1  UNL1       -0.0238
     27 C         140.1109  140.1557  166.9700 C.ar    1  UNL1        0.0015
     28 C         139.1522  139.9123  168.0977 C.ar    1  UNL1       -0.0020
     29 C         139.4135  140.5129  169.4471 C.ar    1  UNL1        0.0060
     30 C         140.6335  141.3569  169.6688 C.ar    1  UNL1        0.0748
     31 C         141.5921  141.6003  168.5411 C.ar    1  UNL1        0.0233
     32 C         142.7018  142.4688  169.0553 C.3     1  UNL1        0.2352
     33 O         142.4289  142.7622  170.5008 O.3     1  UNL1       -0.4404
     34 C         141.1506  142.0750  170.8799 C.2     1  UNL1        0.3413
     35 O         140.5032  142.1012  172.2327 O.2     1  UNL1       -0.2449
@<TRIPOS>BOND
     1    25    26    1
     2    26    27   ar
     3    27    22    1
     4    22    23    1
     5    22    21    1
     6    21     1    1
     7     1     2    1
     8     2     3    1
     9     3     4    1
    10     4     5    1
    11     5     6    1
    12     4     7    1
    13     7     8    1
    14     8    13    1
    15    13    14   ar
    16    14    15   ar
    17    15    16   ar
    18    16    17    2
    19    16    18   ar
    20    18    19    1
    21    18    20   ar
    22     8     9   am
    23     9    10    2
    24     9    11    1
    25    11    12    1
    26    27    28   ar
    27    28    29   ar
    28    29    30   ar
    29    30    31   ar
    30    31    32    1
    31    32    33    1
    32    33    34    1
    33    34    35    2
    34    31    26   ar
    35     6     1    1
    36    20    13   ar
    37    34    30    1
    38    12     4    1
    39    23    24    1
@<TRIPOS>MOLECULE
*****
 35 39 0 0 0
SMALL
GASTEIGER

@<TRIPOS>ATOM
      1 N         138.8875  139.6585  161.6339 N.3     1  UNL1       -0.2702
      2 C         139.0376  138.4529  160.7542 C.3     1  UNL1        0.0747
      3 C         140.1498  138.3913  159.7496 C.3     1  UNL1        0.0463
      4 C         141.1119  139.5353  159.6248 C.3     1  UNL1        0.1146
      5 C         140.9618  140.7409  160.5045 C.3     1  UNL1        0.0463
      6 C         139.8496  140.8025  161.5090 C.3     1  UNL1        0.0747
      7 C         141.2621  138.3297  158.7450 C.3     1  UNL1        0.1268
      8 N         142.3743  138.2680  157.7405 N.am    1  UNL1       -0.2380
      9 C         143.3364  139.4120  157.6157 C.2     1  UNL1        0.2607
     10 O         144.4487  139.3504  156.6111 O.2     1  UNL1       -0.2718
     11 C         143.1863  140.6177  158.4954 C.3     1  UNL1        0.2274
     12 O         142.0741  140.6793  159.5000 O.3     1  UNL1       -0.3475
     13 C         142.5244  137.0624  156.8607 C.ar    1  UNL1        0.1575
     14 C         141.9628  137.0742  155.4699 C.ar    1  UNL1        0.0414
     15 C         142.1129  135.8687  154.5901 C.ar    1  UNL1        0.0651
     16 C         142.8246  134.6513  155.1012 C.ar    1  UNL1        0.2766
     17 O         142.9748  133.4456  154.2214 O.2     1  UNL1       -0.2655
     18 N         143.3863  134.6394  156.4920 N.ar    1  UNL1       -0.2134
     19 C         144.0980  133.4219  157.0031 C.3     1  UNL1        0.1571
     20 N         143.2362  135.8450  157.3718 N.ar    1  UNL1       -0.1513
     21 C         137.7753  139.7202  162.6385 C.3     1  UNL1        0.1063
     22 C         137.7281  140.8380  163.6375 C.3     1  UNL1        0.1483
     23 O         137.0093  142.1118  163.3045 O.3     1  UNL1       -0.3786
     24 H         137.0742  142.7249  164.0533 H       1  UNL1        0.2108
     25 C         139.6700  142.9166  164.5908 C.3     1  UNL1        0.0306
     26 C         139.3706  141.7214  165.4463 C.ar    1  UNL1       -0.0238
     27 C         138.3997  140.6822  164.9697 C.ar    1  UNL1        0.0015
     28 C         138.1004  139.4870  165.8253 C.ar    1  UNL1       -0.0020
     29 C         138.7720  139.3311  167.1574 C.ar    1  UNL1        0.0060
     30 C         139.7429  140.3703  167.6340 C.ar    1  UNL1        0.0748
     31 C         140.0422  141.5655  166.7785 C.ar    1  UNL1        0.0233
     32 C         141.0366  142.4199  167.5073 C.3     1  UNL1        0.2352
     33 O         141.3519  141.7528  168.8133 O.3     1  UNL1       -0.4404
     34 C         140.5523  140.4861  168.8916 C.2     1  UNL1        0.3413
     35 O         140.5606  139.5070  170.0279 O.2     1  UNL1       -0.2449
@<TRIPOS>BOND
     1    25    26    1
     2    26    27   ar
     3    27    22    1
     4    22    23    1
     5    22    21    1
     6    21     1    1
     7     1     2    1
     8     2     3    1
     9     3     4    1
    10     4     5    1
    11     5     6    1
    12     4     7    1
    13     7     8    1
    14     8    13    1
    15    13    14   ar
    16    14    15   ar
    17    15    16   ar
    18    16    17    2
    19    16    18   ar
    20    18    19    1
    21    18    20   ar
    22     8     9   am
    23     9    10    2
    24     9    11    1
    25    11    12    1
    26    27    28   ar
    27    28    29   ar
    28    29    30   ar
    29    30    31   ar
    30    31    32    1
    31    32    33    1
    32    33    34    1
    33    34    35    2
    34    31    26   ar
    35     6     1    1
    36    20    13   ar
    37    34    30    1
    38    12     4    1
    39    23    24    1
