@<TRIPOS>MOLECULE
*****
 26 29 0 0 0
SMALL
GASTEIGER

@<TRIPOS>ATOM
      1 C         143.3563  142.5110  167.2397 C.3     1  UNL1        0.0284
      2 C         142.6349  141.5907  166.3002 C.3     1  UNL1        0.1292
      3 C         143.1606  141.3731  164.9123 C.3     1  UNL1        0.2278
      4 O         142.4392  140.4529  163.9727 O.3     1  UNL1       -0.4707
      5 C         141.1922  139.7503  164.4210 C.ar    1  UNL1        0.1697
      6 C         140.4708  138.8300  163.4815 C.ar    1  UNL1        0.1116
      7 C         139.2237  138.1274  163.9298 C.ar    1  UNL1        0.1565
      8 F         138.5023  137.2072  162.9902 F       1  UNL1       -0.2028
      9 C         138.6979  138.3450  165.3177 C.ar    1  UNL1        0.0357
     10 C         139.4193  139.2652  166.2573 C.ar    1  UNL1        0.0601
     11 C         138.8936  139.4828  167.6451 C.ar    1  UNL1        0.1997
     12 O         137.6464  138.7801  168.0935 O.2     1  UNL1       -0.2864
     13 C         139.6149  140.4030  168.5847 C.ar    1  UNL1        0.0701
     14 C         140.8620  141.1057  168.1364 C.ar    1  UNL1        0.0803
     15 N         141.3878  140.8881  166.7485 N.ar    1  UNL1       -0.3216
     16 C         140.6664  139.9679  165.8089 C.ar    1  UNL1        0.0988
     17 N         140.9965  138.6124  162.0936 N.pl3   1  UNL1       -0.3005
     18 C         142.2575  137.8276  161.8837 C.3     1  UNL1        0.1083
     19 C         142.7832  137.6101  160.4957 C.3     1  UNL1        0.0938
     20 N         142.0479  138.1773  159.3178 N.3     1  UNL1       -0.2686
     21 C         142.5736  137.9597  157.9298 C.3     1  UNL1        0.0897
     22 C         140.7869  138.9620  159.5277 C.3     1  UNL1        0.0938
     23 C         140.2612  139.1796  160.9155 C.3     1  UNL1        0.1083
     24 C         139.0892  140.6206  169.9727 C.2     1  UNL1        0.0774
     25 O         138.5624  139.4613  170.7654 O.co2   1  UNL1       -0.5444
     26 O         139.0902  141.9975  170.5677 O.co2   1  UNL1       -0.5444
@<TRIPOS>UNITY_ATOM_ATTR
25 1
charge -1
@<TRIPOS>BOND
     1     1     2    1
     2     2     3    1
     3     3     4    1
     4     4     5    1
     5     5     6   ar
     6     6    17    1
     7    17    18    1
     8    18    19    1
     9    19    20    1
    10    20    21    1
    11    20    22    1
    12    22    23    1
    13     6     7   ar
    14     7     8    1
    15     7     9   ar
    16     9    10   ar
    17    10    11   ar
    18    11    12    2
    19    11    13   ar
    20    13    24    1
    21    24    25   ar
    22    24    26   ar
    23    13    14   ar
    24    14    15   ar
    25    15    16   ar
    26    15     2    1
    27    16     5   ar
    28    23    17    1
    29    16    10   ar
@<TRIPOS>MOLECULE
*****
 26 29 0 0 0
SMALL
GASTEIGER

@<TRIPOS>ATOM
      1 C         137.8724  138.8095  167.0825 C.3     1  UNL1        0.0284
      2 C         139.0728  139.4118  166.4144 C.3     1  UNL1        0.1292
      3 C         139.3550  139.1162  164.9712 C.3     1  UNL1        0.2278
      4 O         140.5553  139.7185  164.3030 O.3     1  UNL1       -0.4707
      5 C         141.4734  140.6165  165.0781 C.ar    1  UNL1        0.1697
      6 C         142.6737  141.2189  164.4099 C.ar    1  UNL1        0.1116
      7 C         143.5917  142.1169  165.1849 C.ar    1  UNL1        0.1565
      8 F         144.7920  142.7193  164.5168 F       1  UNL1       -0.2028
      9 C         143.3095  142.4126  166.6282 C.ar    1  UNL1        0.0357
     10 C         142.1092  141.8102  167.2964 C.ar    1  UNL1        0.0601
     11 C         141.8269  142.1059  168.7396 C.ar    1  UNL1        0.1997
     12 O         142.7450  143.0039  169.5147 O.2     1  UNL1       -0.2864
     13 C         140.6266  141.5035  169.4077 C.ar    1  UNL1        0.0701
     14 C         139.7086  140.6055  168.6327 C.ar    1  UNL1        0.0803
     15 N         139.9908  140.3098  167.1894 N.ar    1  UNL1       -0.3216
     16 C         141.1911  140.9122  166.5213 C.ar    1  UNL1        0.0988
     17 N         142.9559  140.9233  162.9667 N.pl3   1  UNL1       -0.3005
     18 C         143.8388  139.7686  162.5964 C.3     1  UNL1        0.1083
     19 C         144.1211  139.4729  161.1531 C.3     1  UNL1        0.0938
     20 N         143.5204  140.3320  160.0802 N.3     1  UNL1       -0.2686
     21 C         143.8027  140.0364  158.6369 C.3     1  UNL1        0.0897
     22 C         142.6375  141.4867  160.4505 C.3     1  UNL1        0.0938
     23 C         142.3552  141.7823  161.8937 C.3     1  UNL1        0.1083
     24 C         140.3444  141.7992  170.8510 C.2     1  UNL1        0.0774
     25 O         140.7956  140.8427  171.9147 O.co2   1  UNL1       -0.5444
     26 O         139.6109  143.0514  171.2305 O.co2   1  UNL1       -0.5444
@<TRIPOS>UNITY_ATOM_ATTR
25 1
charge -1
@<TRIPOS>BOND
     1     1     2    1
     2     2     3    1
     3     3     4    1
     4     4     5    1
     5     5     6   ar
     6     6    17    1
     7    17    18    1
     8    18    19    1
     9    19    20    1
    10    20    21    1
    11    20    22    1
    12    22    23    1
    13     6     7   ar
    14     7     8    1
    15     7     9   ar
    16     9    10   ar
    17    10    11   ar
    18    11    12    2
    19    11    13   ar
    20    13    24    1
    21    24    25   ar
    22    24    26   ar
    23    13    14   ar
    24    14    15   ar
    25    15    16   ar
    26    15     2    1
    27    16     5   ar
    28    23    17    1
    29    16    10   ar
@<TRIPOS>MOLECULE
*****
 26 29 0 0 0
SMALL
GASTEIGER

@<TRIPOS>ATOM
      1 C         138.5631  139.1632  166.8600 C.3     1  UNL1        0.0284
      2 C         139.4951  140.0978  166.1473 C.3     1  UNL1        0.1292
      3 C         139.2660  140.4282  164.7023 C.3     1  UNL1        0.2278
      4 O         140.1980  141.3628  163.9896 O.3     1  UNL1       -0.4707
      5 C         141.3591  141.9670  164.7221 C.ar    1  UNL1        0.1697
      6 C         142.2912  142.9016  164.0094 C.ar    1  UNL1        0.1116
      7 C         143.4523  143.5059  164.7419 C.ar    1  UNL1        0.1565
      8 F         144.3843  144.4405  164.0293 F       1  UNL1       -0.2028
      9 C         143.6815  143.1755  166.1870 C.ar    1  UNL1        0.0357
     10 C         142.7495  142.2409  166.8997 C.ar    1  UNL1        0.0601
     11 C         142.9787  141.9105  168.3448 C.ar    1  UNL1        0.1997
     12 O         144.1399  142.5148  169.0773 O.2     1  UNL1       -0.2864
     13 C         142.0467  140.9759  169.0574 C.ar    1  UNL1        0.0701
     14 C         140.8855  140.3717  168.3250 C.ar    1  UNL1        0.0803
     15 N         140.6563  140.7020  166.8798 N.ar    1  UNL1       -0.3216
     16 C         141.5883  141.6366  166.1672 C.ar    1  UNL1        0.0988
     17 N         142.0620  143.2320  162.5644 N.pl3   1  UNL1       -0.3005
     18 C         142.5308  142.2892  161.4960 C.3     1  UNL1        0.1083
     19 C         142.3016  142.6197  160.0508 C.3     1  UNL1        0.0938
     20 N         141.6036  143.8928  159.6741 N.3     1  UNL1       -0.2686
     21 C         141.3744  144.2232  158.2290 C.3     1  UNL1        0.0897
     22 C         141.1348  144.8356  160.7425 C.3     1  UNL1        0.0938
     23 C         141.3640  144.5052  162.1876 C.3     1  UNL1        0.1083
     24 C         142.2759  140.6456  170.5026 C.2     1  UNL1        0.0774
     25 O         143.3553  139.6782  170.8887 O.co2   1  UNL1       -0.5444
     26 O         141.4257  141.2826  171.5615 O.co2   1  UNL1       -0.5444
@<TRIPOS>UNITY_ATOM_ATTR
25 1
charge -1
@<TRIPOS>BOND
     1     1     2    1
     2     2     3    1
     3     3     4    1
     4     4     5    1
     5     5     6   ar
     6     6    17    1
     7    17    18    1
     8    18    19    1
     9    19    20    1
    10    20    21    1
    11    20    22    1
    12    22    23    1
    13     6     7   ar
    14     7     8    1
    15     7     9   ar
    16     9    10   ar
    17    10    11   ar
    18    11    12    2
    19    11    13   ar
    20    13    24    1
    21    24    25   ar
    22    24    26   ar
    23    13    14   ar
    24    14    15   ar
    25    15    16   ar
    26    15     2    1
    27    16     5   ar
    28    23    17    1
    29    16    10   ar
@<TRIPOS>MOLECULE
*****
 26 29 0 0 0
SMALL
GASTEIGER

@<TRIPOS>ATOM
      1 C         143.2443  138.6363  166.8127 C.3     1  UNL1        0.0284
      2 C         142.4200  139.6884  166.1320 C.3     1  UNL1        0.1292
      3 C         142.2157  139.6367  164.6469 C.3     1  UNL1        0.2278
      4 O         141.3913  140.6888  163.9661 O.3     1  UNL1       -0.4707
      5 C         140.7712  141.7926  164.7705 C.ar    1  UNL1        0.1697
      6 C         139.9468  142.8448  164.0897 C.ar    1  UNL1        0.1116
      7 C         139.3268  143.9486  164.8940 C.ar    1  UNL1        0.1565
      8 F         138.5024  145.0007  164.2133 F       1  UNL1       -0.2028
      9 C         139.5311  144.0004  166.3792 C.ar    1  UNL1        0.0357
     10 C         140.3554  142.9482  167.0600 C.ar    1  UNL1        0.0601
     11 C         140.5597  143.0000  168.5451 C.ar    1  UNL1        0.1997
     12 O         139.9397  144.1039  169.3495 O.2     1  UNL1       -0.2864
     13 C         141.3841  141.9478  169.2258 C.ar    1  UNL1        0.0701
     14 C         142.0042  140.8440  168.4215 C.ar    1  UNL1        0.0803
     15 N         141.7999  140.7922  166.9363 N.ar    1  UNL1       -0.3216
     16 C         140.9755  141.8444  166.2556 C.ar    1  UNL1        0.0988
     17 N         139.7425  142.7931  162.6046 N.pl3   1  UNL1       -0.3005
     18 C         138.5870  142.0264  162.0328 C.3     1  UNL1        0.1083
     19 C         138.3827  141.9747  160.5476 C.3     1  UNL1        0.0938
     20 N         139.3339  142.6896  159.6344 N.3     1  UNL1       -0.2686
     21 C         139.1297  142.6380  158.1492 C.3     1  UNL1        0.0897
     22 C         140.4895  143.4563  160.2062 C.3     1  UNL1        0.0938
     23 C         140.6938  143.5080  161.6913 C.3     1  UNL1        0.1083
     24 C         141.5884  141.9996  170.7110 C.2     1  UNL1        0.0774
     25 O         142.5938  142.9459  171.2972 O.co2   1  UNL1       -0.5444
     26 O         140.7873  141.1050  171.6099 O.co2   1  UNL1       -0.5444
@<TRIPOS>UNITY_ATOM_ATTR
25 1
charge -1
@<TRIPOS>BOND
     1     1     2    1
     2     2     3    1
     3     3     4    1
     4     4     5    1
     5     5     6   ar
     6     6    17    1
     7    17    18    1
     8    18    19    1
     9    19    20    1
    10    20    21    1
    11    20    22    1
    12    22    23    1
    13     6     7   ar
    14     7     8    1
    15     7     9   ar
    16     9    10   ar
    17    10    11   ar
    18    11    12    2
    19    11    13   ar
    20    13    24    1
    21    24    25   ar
    22    24    26   ar
    23    13    14   ar
    24    14    15   ar
    25    15    16   ar
    26    15     2    1
    27    16     5   ar
    28    23    17    1
    29    16    10   ar
@<TRIPOS>MOLECULE
*****
 26 29 0 0 0
SMALL
GASTEIGER

@<TRIPOS>ATOM
      1 C         138.5191  144.7773  165.1111 C.3     1  UNL1        0.0284
      2 C         139.3900  143.5766  164.8876 C.3     1  UNL1        0.1292
      3 C         139.5937  143.0458  163.4996 C.3     1  UNL1        0.2278
      4 O         140.4646  141.8451  163.2761 O.3     1  UNL1       -0.4707
      5 C         141.1318  141.1753  164.4407 C.ar    1  UNL1        0.1697
      6 C         142.0027  139.9746  164.2172 C.ar    1  UNL1        0.1116
      7 C         142.6699  139.3048  165.3817 C.ar    1  UNL1        0.1565
      8 F         143.5408  138.1042  165.1582 F       1  UNL1       -0.2028
      9 C         142.4662  139.8357  166.7698 C.ar    1  UNL1        0.0357
     10 C         141.5953  141.0364  166.9933 C.ar    1  UNL1        0.0601
     11 C         141.3916  141.5672  168.3813 C.ar    1  UNL1        0.1997
     12 O         142.0588  140.8974  169.5459 O.2     1  UNL1       -0.2864
     13 C         140.5207  142.7679  168.6048 C.ar    1  UNL1        0.0701
     14 C         139.8535  143.4377  167.4403 C.ar    1  UNL1        0.0803
     15 N         140.0572  142.9068  166.0522 N.ar    1  UNL1       -0.3216
     16 C         140.9281  141.7062  165.8287 C.ar    1  UNL1        0.0988
     17 N         142.2064  139.4438  162.8292 N.pl3   1  UNL1       -0.3005
     18 C         141.0689  138.7904  162.1016 C.3     1  UNL1        0.1083
     19 C         141.2727  138.2595  160.7135 C.3     1  UNL1        0.0938
     20 N         142.6138  138.3820  160.0531 N.3     1  UNL1       -0.2686
     21 C         142.8176  137.8511  158.6650 C.3     1  UNL1        0.0897
     22 C         143.7513  139.0354  160.7806 C.3     1  UNL1        0.0938
     23 C         143.5476  139.5663  162.1686 C.3     1  UNL1        0.1083
     24 C         140.3170  143.2988  169.9929 C.2     1  UNL1        0.0774
     25 O         141.0298  144.5434  170.4320 O.co2   1  UNL1       -0.5444
     26 O         139.4005  142.5850  170.9419 O.co2   1  UNL1       -0.5444
@<TRIPOS>UNITY_ATOM_ATTR
25 1
charge -1
@<TRIPOS>BOND
     1     1     2    1
     2     2     3    1
     3     3     4    1
     4     4     5    1
     5     5     6   ar
     6     6    17    1
     7    17    18    1
     8    18    19    1
     9    19    20    1
    10    20    21    1
    11    20    22    1
    12    22    23    1
    13     6     7   ar
    14     7     8    1
    15     7     9   ar
    16     9    10   ar
    17    10    11   ar
    18    11    12    2
    19    11    13   ar
    20    13    24    1
    21    24    25   ar
    22    24    26   ar
    23    13    14   ar
    24    14    15   ar
    25    15    16   ar
    26    15     2    1
    27    16     5   ar
    28    23    17    1
    29    16    10   ar
@<TRIPOS>MOLECULE
*****
 26 29 0 0 0
SMALL
GASTEIGER

@<TRIPOS>ATOM
      1 C         144.6709  143.6365  165.7590 C.3     1  UNL1        0.0284
      2 C         143.4571  142.8781  165.3100 C.3     1  UNL1        0.1292
      3 C         143.0482  142.9035  163.8671 C.3     1  UNL1        0.2278
      4 O         141.8344  142.1451  163.4181 O.3     1  UNL1       -0.4707
      5 C         141.0295  141.3614  164.4120 C.ar    1  UNL1        0.1697
      6 C         139.8157  140.6031  163.9630 C.ar    1  UNL1        0.1116
      7 C         139.0108  139.8194  164.9569 C.ar    1  UNL1        0.1565
      8 F         137.7970  139.0610  164.5079 F       1  UNL1       -0.2028
      9 C         139.4197  139.7940  166.3999 C.ar    1  UNL1        0.0357
     10 C         140.6335  140.5523  166.8489 C.ar    1  UNL1        0.0601
     11 C         141.0425  140.5270  168.2919 C.ar    1  UNL1        0.1997
     12 O         140.2376  139.7433  169.2859 O.2     1  UNL1       -0.2864
     13 C         142.2563  141.2853  168.7409 C.ar    1  UNL1        0.0701
     14 C         143.0611  142.0690  167.7469 C.ar    1  UNL1        0.0803
     15 N         142.6522  142.0944  166.3039 N.ar    1  UNL1       -0.3216
     16 C         141.4384  141.3361  165.8549 C.ar    1  UNL1        0.0988
     17 N         139.4068  140.6284  162.5201 N.pl3   1  UNL1       -0.3005
     18 C         138.7176  141.8359  161.9569 C.3     1  UNL1        0.1083
     19 C         138.3086  141.8612  160.5139 C.3     1  UNL1        0.0938
     20 N         138.5889  140.6791  159.6341 N.3     1  UNL1       -0.2686
     21 C         138.1800  140.7044  158.1911 C.3     1  UNL1        0.0897
     22 C         139.2782  139.4717  160.1972 C.3     1  UNL1        0.0938
     23 C         139.6871  139.4463  161.6402 C.3     1  UNL1        0.1083
     24 C         142.6652  141.2600  170.1839 C.2     1  UNL1        0.0774
     25 O         142.2833  142.3914  171.0916 O.co2   1  UNL1       -0.5444
     26 O         143.4559  140.1031  170.7191 O.co2   1  UNL1       -0.5444
@<TRIPOS>UNITY_ATOM_ATTR
25 1
charge -1
@<TRIPOS>BOND
     1     1     2    1
     2     2     3    1
     3     3     4    1
     4     4     5    1
     5     5     6   ar
     6     6    17    1
     7    17    18    1
     8    18    19    1
     9    19    20    1
    10    20    21    1
    11    20    22    1
    12    22    23    1
    13     6     7   ar
    14     7     8    1
    15     7     9   ar
    16     9    10   ar
    17    10    11   ar
    18    11    12    2
    19    11    13   ar
    20    13    24    1
    21    24    25   ar
    22    24    26   ar
    23    13    14   ar
    24    14    15   ar
    25    15    16   ar
    26    15     2    1
    27    16     5   ar
    28    23    17    1
    29    16    10   ar
@<TRIPOS>MOLECULE
*****
 26 29 0 0 0
SMALL
GASTEIGER

@<TRIPOS>ATOM
      1 C         143.6216  138.0328  166.6427 C.3     1  UNL1        0.0284
      2 C         142.9415  139.2250  166.0376 C.3     1  UNL1        0.1292
      3 C         143.0874  139.5080  164.5718 C.3     1  UNL1        0.2278
      4 O         142.4073  140.7002  163.9668 O.3     1  UNL1       -0.4707
      5 C         141.5812  141.6094  164.8275 C.ar    1  UNL1        0.1697
      6 C         140.9011  142.8016  164.2224 C.ar    1  UNL1        0.1116
      7 C         140.0751  143.7108  165.0832 C.ar    1  UNL1        0.1565
      8 F         139.3949  144.9030  164.4781 F       1  UNL1       -0.2028
      9 C         139.9291  143.4279  166.5491 C.ar    1  UNL1        0.0357
     10 C         140.6092  142.2357  167.1541 C.ar    1  UNL1        0.0601
     11 C         140.4633  141.9527  168.6199 C.ar    1  UNL1        0.1997
     12 O         139.6372  142.8620  169.4807 O.2     1  UNL1       -0.2864
     13 C         141.1435  140.7605  169.2250 C.ar    1  UNL1        0.0701
     14 C         141.9695  139.8513  168.3642 C.ar    1  UNL1        0.0803
     15 N         142.1155  140.1342  166.8984 N.ar    1  UNL1       -0.3216
     16 C         141.4353  141.3264  166.2933 C.ar    1  UNL1        0.0988
     17 N         141.0470  143.0846  162.7567 N.pl3   1  UNL1       -0.3005
     18 C         139.9037  142.8161  161.8235 C.3     1  UNL1        0.1083
     19 C         140.0497  143.0991  160.3576 C.3     1  UNL1        0.0938
     20 N         141.3389  143.6505  159.8250 N.3     1  UNL1       -0.2686
     21 C         141.4849  143.9335  158.3591 C.3     1  UNL1        0.0897
     22 C         142.4822  143.9191  160.7582 C.3     1  UNL1        0.0938
     23 C         142.3363  143.6361  162.2239 C.3     1  UNL1        0.1083
     24 C         140.9975  140.4776  170.6908 C.2     1  UNL1        0.0774
     25 O         141.9975  141.0277  171.6641 O.co2   1  UNL1       -0.5444
     26 O         139.8515  139.6445  171.1834 O.co2   1  UNL1       -0.5444
@<TRIPOS>UNITY_ATOM_ATTR
25 1
charge -1
@<TRIPOS>BOND
     1     1     2    1
     2     2     3    1
     3     3     4    1
     4     4     5    1
     5     5     6   ar
     6     6    17    1
     7    17    18    1
     8    18    19    1
     9    19    20    1
    10    20    21    1
    11    20    22    1
    12    22    23    1
    13     6     7   ar
    14     7     8    1
    15     7     9   ar
    16     9    10   ar
    17    10    11   ar
    18    11    12    2
    19    11    13   ar
    20    13    24    1
    21    24    25   ar
    22    24    26   ar
    23    13    14   ar
    24    14    15   ar
    25    15    16   ar
    26    15     2    1
    27    16     5   ar
    28    23    17    1
    29    16    10   ar
@<TRIPOS>MOLECULE
*****
 26 29 0 0 0
SMALL
GASTEIGER

@<TRIPOS>ATOM
      1 C         145.8410  141.6012  163.5852 C.3     1  UNL1        0.0284
      2 C         144.4963  142.1169  163.1658 C.3     1  UNL1        0.1292
      3 C         144.2329  142.4398  161.7249 C.3     1  UNL1        0.2278
      4 O         142.8882  142.9556  161.3055 O.3     1  UNL1       -0.4707
      5 C         141.8069  143.1484  162.3271 C.ar    1  UNL1        0.1697
      6 C         140.4622  143.6641  161.9077 C.ar    1  UNL1        0.1116
      7 C         139.3810  143.8570  162.9293 C.ar    1  UNL1        0.1565
      8 F         138.0363  144.3727  162.5099 F       1  UNL1       -0.2028
      9 C         139.6444  143.5341  164.3703 C.ar    1  UNL1        0.0357
     10 C         140.9890  143.0183  164.7896 C.ar    1  UNL1        0.0601
     11 C         141.2525  142.6954  166.2306 C.ar    1  UNL1        0.1997
     12 O         140.1712  142.8883  167.2522 O.2     1  UNL1       -0.2864
     13 C         142.5971  142.1797  166.6499 C.ar    1  UNL1        0.0701
     14 C         143.6784  141.9869  165.6284 C.ar    1  UNL1        0.0803
     15 N         143.4150  142.3098  164.1874 N.ar    1  UNL1       -0.3216
     16 C         142.0703  142.8255  163.7680 C.ar    1  UNL1        0.0988
     17 N         140.1988  143.9870  160.4668 N.pl3   1  UNL1       -0.3005
     18 C         139.5320  142.9763  159.5814 C.3     1  UNL1        0.1083
     19 C         139.2686  143.2993  158.1405 C.3     1  UNL1        0.0938
     20 N         139.6720  144.6329  157.5849 N.3     1  UNL1       -0.2686
     21 C         139.4086  144.9558  156.1439 C.3     1  UNL1        0.0897
     22 C         140.3388  145.6436  158.4702 C.3     1  UNL1        0.0938
     23 C         140.6022  145.3207  159.9111 C.3     1  UNL1        0.1083
     24 C         142.8605  141.8568  168.0910 C.2     1  UNL1        0.0774
     25 O         142.2942  140.6061  168.6949 O.co2   1  UNL1       -0.5444
     26 O         143.6902  142.7848  168.9279 O.co2   1  UNL1       -0.5444
@<TRIPOS>UNITY_ATOM_ATTR
25 1
charge -1
@<TRIPOS>BOND
     1     1     2    1
     2     2     3    1
     3     3     4    1
     4     4     5    1
     5     5     6   ar
     6     6    17    1
     7    17    18    1
     8    18    19    1
     9    19    20    1
    10    20    21    1
    11    20    22    1
    12    22    23    1
    13     6     7   ar
    14     7     8    1
    15     7     9   ar
    16     9    10   ar
    17    10    11   ar
    18    11    12    2
    19    11    13   ar
    20    13    24    1
    21    24    25   ar
    22    24    26   ar
    23    13    14   ar
    24    14    15   ar
    25    15    16   ar
    26    15     2    1
    27    16     5   ar
    28    23    17    1
    29    16    10   ar
@<TRIPOS>MOLECULE
*****
 26 29 0 0 0
SMALL
GASTEIGER

@<TRIPOS>ATOM
      1 C         137.8303  143.7528  164.2779 C.3     1  UNL1        0.0284
      2 C         139.1842  143.2280  163.9014 C.3     1  UNL1        0.1292
      3 C         139.5493  143.0634  162.4559 C.3     1  UNL1        0.2278
      4 O         140.9031  142.5386  162.0794 O.3     1  UNL1       -0.4707
      5 C         141.8918  142.1785  163.1484 C.ar    1  UNL1        0.1697
      6 C         143.2457  141.6537  162.7718 C.ar    1  UNL1        0.1116
      7 C         144.2344  141.2936  163.8408 C.ar    1  UNL1        0.1565
      8 F         145.5882  140.7689  163.4643 F       1  UNL1       -0.2028
      9 C         143.8692  141.4583  165.2864 C.ar    1  UNL1        0.0357
     10 C         142.5154  141.9830  165.6629 C.ar    1  UNL1        0.0601
     11 C         142.1503  142.1477  167.1084 C.ar    1  UNL1        0.1997
     12 O         143.1390  141.7876  168.1775 O.2     1  UNL1       -0.2864
     13 C         140.7965  142.6725  167.4850 C.ar    1  UNL1        0.0701
     14 C         139.8078  143.0326  166.4160 C.ar    1  UNL1        0.0803
     15 N         140.1729  142.8679  164.9704 N.ar    1  UNL1       -0.3216
     16 C         141.5267  142.3432  164.5939 C.ar    1  UNL1        0.0988
     17 N         143.6108  141.4891  161.3263 N.pl3   1  UNL1       -0.3005
     18 C         144.1994  142.6401  160.5656 C.3     1  UNL1        0.1083
     19 C         144.5645  142.4754  159.1200 C.3     1  UNL1        0.0938
     20 N         144.3411  141.1597  158.4353 N.3     1  UNL1       -0.2686
     21 C         144.7062  140.9950  156.9897 C.3     1  UNL1        0.0897
     22 C         143.7525  140.0087  159.1960 C.3     1  UNL1        0.0938
     23 C         143.3874  140.1733  160.6415 C.3     1  UNL1        0.1083
     24 C         140.4313  142.8371  168.9306 C.2     1  UNL1        0.0774
     25 O         140.3652  141.6376  169.8287 O.co2   1  UNL1       -0.5444
     26 O         140.1324  144.2013  169.4779 O.co2   1  UNL1       -0.5444
@<TRIPOS>UNITY_ATOM_ATTR
25 1
charge -1
@<TRIPOS>BOND
     1     1     2    1
     2     2     3    1
     3     3     4    1
     4     4     5    1
     5     5     6   ar
     6     6    17    1
     7    17    18    1
     8    18    19    1
     9    19    20    1
    10    20    21    1
    11    20    22    1
    12    22    23    1
    13     6     7   ar
    14     7     8    1
    15     7     9   ar
    16     9    10   ar
    17    10    11   ar
    18    11    12    2
    19    11    13   ar
    20    13    24    1
    21    24    25   ar
    22    24    26   ar
    23    13    14   ar
    24    14    15   ar
    25    15    16   ar
    26    15     2    1
    27    16     5   ar
    28    23    17    1
    29    16    10   ar
