@<TRIPOS>MOLECULE
*****
 24 27 0 0 0
SMALL
GASTEIGER

@<TRIPOS>ATOM
      1 C         138.4365  138.9052  165.4443 C.ar    1  UNL1        0.1477
      2 C         139.0046  137.5923  164.9929 C.ar    1  UNL1        0.0373
      3 C         139.2655  137.3492  163.5359 C.ar    1  UNL1        0.0002
      4 C         138.9583  138.4191  162.5303 C.ar    1  UNL1       -0.0059
      5 C         138.3902  139.7319  162.9817 C.ar    1  UNL1        0.0002
      6 C         138.1294  139.9749  164.4387 C.ar    1  UNL1        0.0373
      7 O         138.1756  139.1482  166.9013 O.3     1  UNL1       -0.4313
      8 CL        144.4487  142.6423  170.0737 Cl      1  UNL1       -0.0806
      9 C         143.1030  141.9933  169.9395 C.ar    1  UNL1        0.0774
     10 C         142.2337  141.8123  171.1485 C.ar    1  UNL1        0.1119
     11 N         140.8881  141.1633  171.0143 N.ar    1  UNL1       -0.2236
     12 C         140.4117  140.6952  169.6712 C.ar    1  UNL1        0.1721
     13 N         139.1427  140.0259  169.2336 N.ar    1  UNL1       -0.1859
     14 C         139.2276  139.7932  167.7542 C.ar    1  UNL1        0.2642
     15 S         140.5492  140.3187  167.2775 S.2     1  UNL1       -0.0267
     16 C         141.2810  140.8762  168.4623 C.ar    1  UNL1        0.0705
     17 C         142.6266  141.5252  168.5965 C.ar    1  UNL1        0.0227
     18 C         139.2192  138.1760  161.0733 C.3     1  UNL1        0.0991
     19 N         140.5447  138.5465  160.4767 N.3     1  UNL1       -0.2690
     20 C         140.6050  139.4815  159.3054 C.3     1  UNL1        0.0724
     21 C         141.9305  139.8520  158.7088 C.3     1  UNL1        0.0174
     22 C         143.1957  139.2873  159.2836 C.3     1  UNL1        0.0029
     23 C         143.1354  138.3522  160.4550 C.3     1  UNL1        0.0174
     24 C         141.8099  137.9818  161.0515 C.3     1  UNL1        0.0724
@<TRIPOS>BOND
     1     8     9    1
     2     9    10   ar
     3    10    11   ar
     4    11    12   ar
     5    12    13   ar
     6    13    14   ar
     7    14     7    1
     8     7     1    1
     9     1     2   ar
    10     2     3   ar
    11     3     4   ar
    12     4    18    1
    13    18    19    1
    14    19    20    1
    15    20    21    1
    16    21    22    1
    17    22    23    1
    18    23    24    1
    19     4     5   ar
    20     5     6   ar
    21    14    15   ar
    22    15    16   ar
    23    16    17   ar
    24    17     9   ar
    25    16    12   ar
    26     6     1   ar
    27    24    19    1
@<TRIPOS>MOLECULE
*****
 24 27 0 0 0
SMALL
GASTEIGER

@<TRIPOS>ATOM
      1 C         138.4007  138.8918  165.4752 C.ar    1  UNL1        0.1477
      2 C         138.0570  140.0156  164.5430 C.ar    1  UNL1        0.0373
      3 C         138.2523  139.8503  163.0650 C.ar    1  UNL1        0.0002
      4 C         138.7912  138.5612  162.5192 C.ar    1  UNL1       -0.0059
      5 C         139.1348  137.4374  163.4514 C.ar    1  UNL1        0.0002
      6 C         138.9396  137.6027  164.9294 C.ar    1  UNL1        0.0373
      7 O         138.2055  139.0571  166.9533 O.3     1  UNL1       -0.4313
      8 CL        144.4923  142.6558  169.9780 Cl      1  UNL1       -0.0806
      9 C         143.1380  142.0205  169.8676 C.ar    1  UNL1        0.0774
     10 C         142.2494  141.9344  171.0730 C.ar    1  UNL1        0.1119
     11 N         140.8951  141.2991  170.9625 N.ar    1  UNL1       -0.2236
     12 C         140.4293  140.7500  169.6467 C.ar    1  UNL1        0.1721
     13 N         139.1553  140.0731  169.2360 N.ar    1  UNL1       -0.1859
     14 C         139.2564  139.7409  167.7767 C.ar    1  UNL1        0.2642
     15 S         140.5929  140.2125  167.2856 S.2     1  UNL1       -0.0267
     16 C         141.3178  140.8362  168.4413 C.ar    1  UNL1        0.0705
     17 C         142.6721  141.4714  168.5518 C.ar    1  UNL1        0.0227
     18 C         138.9864  138.3958  161.0412 C.3     1  UNL1        0.0991
     19 N         139.2052  139.6003  160.1742 N.3     1  UNL1       -0.2690
     20 C         138.0683  140.1663  159.3760 C.3     1  UNL1        0.0724
     21 C         138.2871  141.3708  158.5091 C.3     1  UNL1        0.0174
     22 C         139.6428  142.0091  158.4404 C.3     1  UNL1        0.0029
     23 C         140.7796  141.4430  159.2386 C.3     1  UNL1        0.0174
     24 C         140.5608  140.2386  160.1055 C.3     1  UNL1        0.0724
@<TRIPOS>BOND
     1     8     9    1
     2     9    10   ar
     3    10    11   ar
     4    11    12   ar
     5    12    13   ar
     6    13    14   ar
     7    14     7    1
     8     7     1    1
     9     1     2   ar
    10     2     3   ar
    11     3     4   ar
    12     4    18    1
    13    18    19    1
    14    19    20    1
    15    20    21    1
    16    21    22    1
    17    22    23    1
    18    23    24    1
    19     4     5   ar
    20     5     6   ar
    21    14    15   ar
    22    15    16   ar
    23    16    17   ar
    24    17     9   ar
    25    16    12   ar
    26     6     1   ar
    27    24    19    1
@<TRIPOS>MOLECULE
*****
 24 27 0 0 0
SMALL
GASTEIGER

@<TRIPOS>ATOM
      1 C         139.0170  138.1984  165.0753 C.ar    1  UNL1        0.1477
      2 C         140.2245  139.0468  165.3446 C.ar    1  UNL1        0.0373
      3 C         140.3488  139.7830  166.6456 C.ar    1  UNL1        0.0002
      4 C         139.2656  139.6708  167.6773 C.ar    1  UNL1       -0.0059
      5 C         138.0583  138.8225  167.4079 C.ar    1  UNL1        0.0002
      6 C         137.9340  138.0863  166.1069 C.ar    1  UNL1        0.0373
      7 O         138.8927  137.4622  163.7743 O.3     1  UNL1       -0.4313
      8 CL        142.0759  140.5235  157.2843 Cl      1  UNL1       -0.0806
      9 C         141.8994  139.6970  158.5236 C.ar    1  UNL1        0.0774
     10 C         142.9861  138.7604  158.9615 C.ar    1  UNL1        0.1119
     11 N         142.8097  137.9339  160.2007 N.ar    1  UNL1       -0.2236
     12 C         141.5465  138.0440  161.0021 C.ar    1  UNL1        0.1721
     13 N         141.0917  137.3612  162.2579 N.ar    1  UNL1       -0.1859
     14 C         139.7240  137.8759  162.5961 C.ar    1  UNL1        0.2642
     15 S         139.3333  138.8767  161.5493 S.2     1  UNL1       -0.0267
     16 C         140.4598  138.9806  160.5642 C.ar    1  UNL1        0.0705
     17 C         140.6362  139.8071  159.3249 C.ar    1  UNL1        0.0227
     18 C         139.3899  140.4070  168.9783 C.3     1  UNL1        0.0991
     19 N         140.6885  141.0597  169.3496 N.3     1  UNL1       -0.2690
     20 C         140.7912  142.5556  169.3905 C.3     1  UNL1        0.0724
     21 C         142.0897  143.2084  169.7618 C.3     1  UNL1        0.0174
     22 C         143.2855  142.3652  170.0921 C.3     1  UNL1        0.0029
     23 C         143.1828  140.8692  170.0512 C.3     1  UNL1        0.0174
     24 C         141.8843  140.2165  169.6799 C.3     1  UNL1        0.0724
@<TRIPOS>BOND
     1     8     9    1
     2     9    10   ar
     3    10    11   ar
     4    11    12   ar
     5    12    13   ar
     6    13    14   ar
     7    14     7    1
     8     7     1    1
     9     1     2   ar
    10     2     3   ar
    11     3     4   ar
    12     4    18    1
    13    18    19    1
    14    19    20    1
    15    20    21    1
    16    21    22    1
    17    22    23    1
    18    23    24    1
    19     4     5   ar
    20     5     6   ar
    21    14    15   ar
    22    15    16   ar
    23    16    17   ar
    24    17     9   ar
    25    16    12   ar
    26     6     1   ar
    27    24    19    1
@<TRIPOS>MOLECULE
*****
 24 27 0 0 0
SMALL
GASTEIGER

@<TRIPOS>ATOM
      1 C         138.6610  138.7032  164.8392 C.ar    1  UNL1        0.1477
      2 C         138.2392  139.6643  163.7675 C.ar    1  UNL1        0.0373
      3 C         138.7883  139.5268  162.3784 C.ar    1  UNL1        0.0002
      4 C         139.7591  138.4282  162.0610 C.ar    1  UNL1       -0.0059
      5 C         140.1808  137.4672  163.1327 C.ar    1  UNL1        0.0002
      6 C         139.6318  137.6046  164.5218 C.ar    1  UNL1        0.0373
      7 O         138.1119  138.8406  166.2283 O.3     1  UNL1       -0.4313
      8 CL        143.0093  143.1991  170.5461 Cl      1  UNL1       -0.0806
      9 C         141.8993  142.2620  170.1722 C.ar    1  UNL1        0.0774
     10 C         141.0414  141.6515  171.2404 C.ar    1  UNL1        0.1119
     11 N         139.9314  140.7144  170.8666 N.ar    1  UNL1       -0.2236
     12 C         139.6794  140.3878  169.4244 C.ar    1  UNL1        0.1721
     13 N         138.6664  139.5053  168.7574 N.ar    1  UNL1       -0.1859
     14 C         138.8983  139.5703  167.2768 C.ar    1  UNL1        0.2642
     15 S         140.0546  140.4930  167.0288 S.2     1  UNL1       -0.0267
     16 C         140.5373  140.9983  168.3562 C.ar    1  UNL1        0.0705
     17 C         141.6473  141.9354  168.7301 C.ar    1  UNL1        0.0227
     18 C         140.3082  138.2907  160.6719 C.3     1  UNL1        0.0991
     19 N         141.4747  139.1292  160.2401 N.3     1  UNL1       -0.2690
     20 C         142.2520  139.9127  161.2559 C.3     1  UNL1        0.0724
     21 C         143.4184  140.7512  160.8241 C.3     1  UNL1        0.0174
     22 C         143.8075  140.8062  159.3765 C.3     1  UNL1        0.0029
     23 C         143.0301  140.0227  158.3606 C.3     1  UNL1        0.0174
     24 C         141.8637  139.1842  158.7925 C.3     1  UNL1        0.0724
@<TRIPOS>BOND
     1     8     9    1
     2     9    10   ar
     3    10    11   ar
     4    11    12   ar
     5    12    13   ar
     6    13    14   ar
     7    14     7    1
     8     7     1    1
     9     1     2   ar
    10     2     3   ar
    11     3     4   ar
    12     4    18    1
    13    18    19    1
    14    19    20    1
    15    20    21    1
    16    21    22    1
    17    22    23    1
    18    23    24    1
    19     4     5   ar
    20     5     6   ar
    21    14    15   ar
    22    15    16   ar
    23    16    17   ar
    24    17     9   ar
    25    16    12   ar
    26     6     1   ar
    27    24    19    1
@<TRIPOS>MOLECULE
*****
 24 27 0 0 0
SMALL
GASTEIGER

@<TRIPOS>ATOM
      1 C         138.6490  139.8134  164.6306 C.ar    1  UNL1        0.1477
      2 C         138.0302  138.8910  165.6389 C.ar    1  UNL1        0.0373
      3 C         138.4034  139.0042  167.0873 C.ar    1  UNL1        0.0002
      4 C         139.3954  140.0397  167.5275 C.ar    1  UNL1       -0.0059
      5 C         140.0142  140.9620  166.5193 C.ar    1  UNL1        0.0002
      6 C         139.6410  140.8488  165.0709 C.ar    1  UNL1        0.0373
      7 O         138.2759  139.7002  163.1822 O.3     1  UNL1       -0.4313
      8 CL        142.3994  143.5144  157.6985 Cl      1  UNL1       -0.0806
      9 C         141.3551  143.2084  158.7308 C.ar    1  UNL1        0.0774
     10 C         140.3016  144.2253  159.0563 C.ar    1  UNL1        0.1119
     11 N         139.2573  143.9193  160.0886 N.ar    1  UNL1       -0.2236
     12 C         139.2665  142.5964  160.7955 C.ar    1  UNL1        0.1721
     13 N         138.3725  142.0162  161.8511 N.ar    1  UNL1       -0.1859
     14 C         138.8735  140.6407  162.1780 C.ar    1  UNL1        0.2642
     15 S         140.0771  140.3707  161.3245 S.2     1  UNL1       -0.0267
     16 C         140.3199  141.5795  160.4701 C.ar    1  UNL1        0.0705
     17 C         141.3643  141.8855  159.4377 C.ar    1  UNL1        0.0227
     18 C         139.7686  140.1529  168.9759 C.3     1  UNL1        0.0991
     19 N         140.8692  141.0813  169.3965 N.3     1  UNL1       -0.2690
     20 C         142.2868  140.5931  169.4393 C.3     1  UNL1        0.0724
     21 C         143.3874  141.5216  169.8599 C.3     1  UNL1        0.0174
     22 C         143.0703  142.9381  170.2376 C.3     1  UNL1        0.0029
     23 C         141.6525  143.4263  170.1948 C.3     1  UNL1        0.0174
     24 C         140.5520  142.4979  169.7742 C.3     1  UNL1        0.0724
@<TRIPOS>BOND
     1     8     9    1
     2     9    10   ar
     3    10    11   ar
     4    11    12   ar
     5    12    13   ar
     6    13    14   ar
     7    14     7    1
     8     7     1    1
     9     1     2   ar
    10     2     3   ar
    11     3     4   ar
    12     4    18    1
    13    18    19    1
    14    19    20    1
    15    20    21    1
    16    21    22    1
    17    22    23    1
    18    23    24    1
    19     4     5   ar
    20     5     6   ar
    21    14    15   ar
    22    15    16   ar
    23    16    17   ar
    24    17     9   ar
    25    16    12   ar
    26     6     1   ar
    27    24    19    1
@<TRIPOS>MOLECULE
*****
 24 27 0 0 0
SMALL
GASTEIGER

@<TRIPOS>ATOM
      1 C         138.2025  142.0195  163.6900 C.ar    1  UNL1        0.1477
      2 C         137.9104  140.6114  164.1167 C.ar    1  UNL1        0.0373
      3 C         138.5366  140.0604  165.3635 C.ar    1  UNL1        0.0002
      4 C         139.4549  140.9175  166.1834 C.ar    1  UNL1       -0.0059
      5 C         139.7469  142.3255  165.7566 C.ar    1  UNL1        0.0002
      6 C         139.1207  142.8765  164.5099 C.ar    1  UNL1        0.0373
      7 O         137.5763  142.5705  162.4432 O.3     1  UNL1       -0.4313
      8 CL        141.6388  143.9381  155.8668 Cl      1  UNL1       -0.0806
      9 C         141.0842  144.1002  157.2511 C.ar    1  UNL1        0.0774
     10 C         141.4774  145.2852  158.0825 C.ar    1  UNL1        0.1119
     11 N         140.9228  145.4473  159.4667 N.ar    1  UNL1       -0.2236
     12 C         139.9751  144.4246  160.0195 C.ar    1  UNL1        0.1721
     13 N         139.2716  144.3181  161.3401 N.ar    1  UNL1       -0.1859
     14 C         138.4437  143.0674  161.3248 C.ar    1  UNL1        0.2642
     15 S         138.6355  142.4008  159.9948 S.2     1  UNL1       -0.0267
     16 C         139.5819  143.2396  159.1881 C.ar    1  UNL1        0.0705
     17 C         140.1365  143.0774  157.8039 C.ar    1  UNL1        0.0227
     18 C         140.0811  140.3665  167.4301 C.3     1  UNL1        0.0991
     19 N         140.8990  141.2589  168.3160 N.3     1  UNL1       -0.2690
     20 C         140.2191  142.2013  169.2644 C.3     1  UNL1        0.0724
     21 C         141.0371  143.0936  170.1503 C.3     1  UNL1        0.0174
     22 C         142.5349  143.0435  170.0878 C.3     1  UNL1        0.0029
     23 C         143.2148  142.1010  169.1393 C.3     1  UNL1        0.0174
     24 C         142.3969  141.2087  168.2535 C.3     1  UNL1        0.0724
@<TRIPOS>BOND
     1     8     9    1
     2     9    10   ar
     3    10    11   ar
     4    11    12   ar
     5    12    13   ar
     6    13    14   ar
     7    14     7    1
     8     7     1    1
     9     1     2   ar
    10     2     3   ar
    11     3     4   ar
    12     4    18    1
    13    18    19    1
    14    19    20    1
    15    20    21    1
    16    21    22    1
    17    22    23    1
    18    23    24    1
    19     4     5   ar
    20     5     6   ar
    21    14    15   ar
    22    15    16   ar
    23    16    17   ar
    24    17     9   ar
    25    16    12   ar
    26     6     1   ar
    27    24    19    1
@<TRIPOS>MOLECULE
*****
 24 27 0 0 0
SMALL
GASTEIGER

@<TRIPOS>ATOM
      1 C         140.0348  144.7236  163.5042 C.ar    1  UNL1        0.1477
      2 C         138.7264  144.0369  163.7629 C.ar    1  UNL1        0.0373
      3 C         138.6395  142.9538  164.7970 C.ar    1  UNL1        0.0002
      4 C         139.8608  142.5574  165.5724 C.ar    1  UNL1       -0.0059
      5 C         141.1691  143.2441  165.3137 C.ar    1  UNL1        0.0002
      6 C         141.2560  144.3271  164.2796 C.ar    1  UNL1        0.0373
      7 O         140.1217  145.8066  162.4701 O.3     1  UNL1       -0.4313
      8 CL        143.0926  143.2246  155.6781 Cl      1  UNL1       -0.0806
      9 C         142.2086  143.9324  156.6617 C.ar    1  UNL1        0.0774
     10 C         141.0523  144.7544  156.1747 C.ar    1  UNL1        0.1119
     11 N         140.1682  145.4621  157.1584 N.ar    1  UNL1       -0.2236
     12 C         140.4404  145.3478  158.6290 C.ar    1  UNL1        0.1721
     13 N         139.7472  145.9276  159.8261 N.ar    1  UNL1       -0.1859
     14 C         140.4750  145.4640  161.0531 C.ar    1  UNL1        0.2642
     15 S         141.6181  144.5976  160.6142 S.2     1  UNL1       -0.0267
     16 C         141.5967  144.5258  159.1160 C.ar    1  UNL1        0.0705
     17 C         142.4808  143.8181  158.1324 C.ar    1  UNL1        0.0227
     18 C         139.7739  141.4744  166.6066 C.3     1  UNL1        0.0991
     19 N         139.3997  140.0792  166.2018 N.3     1  UNL1       -0.2690
     20 C         138.3192  139.3480  166.9418 C.3     1  UNL1        0.0724
     21 C         137.9450  137.9528  166.5371 C.3     1  UNL1        0.0174
     22 C         138.6513  137.2891  165.3924 C.3     1  UNL1        0.0029
     23 C         139.7319  138.0205  164.6523 C.3     1  UNL1        0.0174
     24 C         140.1060  139.4155  165.0571 C.3     1  UNL1        0.0724
@<TRIPOS>BOND
     1     8     9    1
     2     9    10   ar
     3    10    11   ar
     4    11    12   ar
     5    12    13   ar
     6    13    14   ar
     7    14     7    1
     8     7     1    1
     9     1     2   ar
    10     2     3   ar
    11     3     4   ar
    12     4    18    1
    13    18    19    1
    14    19    20    1
    15    20    21    1
    16    21    22    1
    17    22    23    1
    18    23    24    1
    19     4     5   ar
    20     5     6   ar
    21    14    15   ar
    22    15    16   ar
    23    16    17   ar
    24    17     9   ar
    25    16    12   ar
    26     6     1   ar
    27    24    19    1
@<TRIPOS>MOLECULE
*****
 24 27 0 0 0
SMALL
GASTEIGER

@<TRIPOS>ATOM
      1 C         139.2000  138.1757  162.6217 C.ar    1  UNL1        0.1477
      2 C         138.4360  138.8313  161.5096 C.ar    1  UNL1        0.0373
      3 C         139.1114  139.1133  160.2003 C.ar    1  UNL1        0.0002
      4 C         140.5508  138.7397  160.0031 C.ar    1  UNL1       -0.0059
      5 C         141.3146  138.0842  161.1151 C.ar    1  UNL1        0.0002
      6 C         140.6393  137.8022  162.4245 C.ar    1  UNL1        0.0373
      7 O         138.5246  137.8937  163.9310 O.3     1  UNL1       -0.4313
      8 CL        140.9372  143.1306  169.2582 Cl      1  UNL1       -0.0806
      9 C         140.2874  141.9240  168.6485 C.ar    1  UNL1        0.0774
     10 C         139.5539  140.9469  169.5188 C.ar    1  UNL1        0.1119
     11 N         138.9041  139.7403  168.9091 N.ar    1  UNL1       -0.2236
     12 C         138.9877  139.5106  167.4292 C.ar    1  UNL1        0.1721
     13 N         138.4502  138.4200  166.5507 N.ar    1  UNL1       -0.1859
     14 C         138.8515  138.7230  165.1375 C.ar    1  UNL1        0.2642
     15 S         139.6370  140.0009  165.1425 S.2     1  UNL1       -0.0267
     16 C         139.7212  140.4876  166.5589 C.ar    1  UNL1        0.0705
     17 C         140.3710  141.6943  167.1686 C.ar    1  UNL1        0.0227
     18 C         141.2261  139.0217  158.6937 C.3     1  UNL1        0.0991
     19 N         141.3613  137.9338  157.6699 N.3     1  UNL1       -0.2690
     20 C         140.2332  137.6511  156.7226 C.3     1  UNL1        0.0724
     21 C         140.3684  136.5632  155.6987 C.3     1  UNL1        0.0174
     22 C         141.6316  135.7579  155.6223 C.3     1  UNL1        0.0029
     23 C         142.7597  136.0406  156.5697 C.3     1  UNL1        0.0174
     24 C         142.6245  137.1286  157.5935 C.3     1  UNL1        0.0724
@<TRIPOS>BOND
     1     8     9    1
     2     9    10   ar
     3    10    11   ar
     4    11    12   ar
     5    12    13   ar
     6    13    14   ar
     7    14     7    1
     8     7     1    1
     9     1     2   ar
    10     2     3   ar
    11     3     4   ar
    12     4    18    1
    13    18    19    1
    14    19    20    1
    15    20    21    1
    16    21    22    1
    17    22    23    1
    18    23    24    1
    19     4     5   ar
    20     5     6   ar
    21    14    15   ar
    22    15    16   ar
    23    16    17   ar
    24    17     9   ar
    25    16    12   ar
    26     6     1   ar
    27    24    19    1
@<TRIPOS>MOLECULE
*****
 24 27 0 0 0
SMALL
GASTEIGER

@<TRIPOS>ATOM
      1 C         142.6926  138.1563  164.6031 C.ar    1  UNL1        0.1477
      2 C         141.4010  137.5255  164.1741 C.ar    1  UNL1        0.0373
      3 C         140.9571  137.6231  162.7446 C.ar    1  UNL1        0.0002
      4 C         141.8049  138.3514  161.7441 C.ar    1  UNL1       -0.0059
      5 C         143.0964  138.9821  162.1731 C.ar    1  UNL1        0.0002
      6 C         143.5402  138.8845  163.6026 C.ar    1  UNL1        0.0373
      7 O         143.1364  138.0587  166.0326 O.3     1  UNL1       -0.4313
      8 CL        140.4254  144.2767  169.9836 Cl      1  UNL1       -0.0806
      9 C         141.0929  142.9672  169.6844 C.ar    1  UNL1        0.0774
     10 C         141.7280  142.1789  170.7912 C.ar    1  UNL1        0.1119
     11 N         142.3956  140.8694  170.4920 N.ar    1  UNL1       -0.2236
     12 C         142.4280  140.3482  169.0859 C.ar    1  UNL1        0.1721
     13 N         143.0086  139.0993  168.4915 N.ar    1  UNL1       -0.1859
     14 C         142.7323  139.1158  167.0172 C.ar    1  UNL1        0.2642
     15 S         141.9809  140.3748  166.7005 S.2     1  UNL1       -0.0267
     16 C         141.7929  141.1364  167.9790 C.ar    1  UNL1        0.0705
     17 C         141.1253  142.4459  168.2782 C.ar    1  UNL1        0.0227
     18 C         141.3610  138.4489  160.3146 C.3     1  UNL1        0.0991
     19 N         140.4788  139.5812  159.8788 N.3     1  UNL1       -0.2690
     20 C         139.0525  139.3167  159.4975 C.3     1  UNL1        0.0724
     21 C         138.1703  140.4489  159.0617 C.3     1  UNL1        0.0174
     22 C         138.7145  141.8457  159.0072 C.3     1  UNL1        0.0029
     23 C         140.1410  142.1101  159.3886 C.3     1  UNL1        0.0174
     24 C         141.0231  140.9779  159.8244 C.3     1  UNL1        0.0724
@<TRIPOS>BOND
     1     8     9    1
     2     9    10   ar
     3    10    11   ar
     4    11    12   ar
     5    12    13   ar
     6    13    14   ar
     7    14     7    1
     8     7     1    1
     9     1     2   ar
    10     2     3   ar
    11     3     4   ar
    12     4    18    1
    13    18    19    1
    14    19    20    1
    15    20    21    1
    16    21    22    1
    17    22    23    1
    18    23    24    1
    19     4     5   ar
    20     5     6   ar
    21    14    15   ar
    22    15    16   ar
    23    16    17   ar
    24    17     9   ar
    25    16    12   ar
    26     6     1   ar
    27    24    19    1
