@<TRIPOS>MOLECULE
*****
 27 30 0 0 0
SMALL
GASTEIGER

@<TRIPOS>ATOM
      1 C         138.8422  140.2290  166.0686 C.ar    1  UNL1        0.1477
      2 N         138.6853  141.1902  164.9278 N.ar    1  UNL1       -0.2292
      3 C         139.3596  142.5291  164.9771 C.ar    1  UNL1        0.0873
      4 C         140.1908  142.9069  166.1672 C.ar    1  UNL1        0.0400
      5 C         140.3477  141.9457  167.3081 C.ar    1  UNL1        0.1032
      6 N         141.1789  142.3235  168.4982 N.ar    1  UNL1       -0.2405
      7 C         141.3357  141.3623  169.6390 C.ar    1  UNL1        0.1195
      8 C         140.6614  140.0233  169.5897 C.ar    1  UNL1        0.1196
      9 N         139.8302  139.6455  168.3996 N.ar    1  UNL1       -0.2379
     10 C         139.6734  140.6067  167.2588 C.ar    1  UNL1        0.1302
     11 C         139.2028  143.4903  163.8362 C.ar    1  UNL1        0.0573
     12 C         137.9453  144.2182  163.4632 C.ar    1  UNL1        0.1231
     13 N         138.2411  145.0701  162.2645 N.ar    1  UNL1       -0.1675
     14 N         139.6814  144.8687  161.8968 N.ar    1  UNL1       -0.2473
     15 C         140.4010  145.5280  160.7578 C.3     1  UNL1        0.1538
     16 C         140.2757  143.8924  162.8682 C.ar    1  UNL1        0.0982
     17 N         138.1678  138.8900  166.0193 N.pl3   1  UNL1       -0.3157
     18 H         137.2520  138.7870  166.3657 H       1  UNL1        0.1483
     19 C         138.8888  137.7080  165.4423 C.3     1  UNL1        0.1057
     20 C         141.8372  138.2294  165.2546 C.3     1  UNL1        0.0897
     21 N         141.0219  138.0745  164.0051 N.3     1  UNL1       -0.2689
     22 C         141.6808  138.1804  162.6617 C.3     1  UNL1        0.0895
     23 C         140.8654  138.0255  161.4122 C.3     1  UNL1        0.0862
     24 N         139.3913  137.7648  161.5061 N.3     1  UNL1       -0.2951
     25 C         138.7324  137.6589  162.8495 C.3     1  UNL1        0.0865
     26 C         139.5477  137.8138  164.0990 C.3     1  UNL1        0.0931
     27 H         139.2166  136.8840  161.0222 H       1  UNL1        0.1233
@<TRIPOS>BOND
     1    20    21    1
     2    21    22    1
     3    22    23    1
     4    23    24    1
     5    24    25    1
     6    25    26    1
     7    26    19    1
     8    19    17    1
     9    17     1    1
    10     1     2   ar
    11     2     3   ar
    12     3    11    1
    13    11    12   ar
    14    12    13   ar
    15    13    14   ar
    16    14    15    1
    17    14    16   ar
    18     3     4   ar
    19     4     5   ar
    20     5     6   ar
    21     6     7   ar
    22     7     8   ar
    23     8     9   ar
    24     9    10   ar
    25    26    21    1
    26    10     1   ar
    27    16    11   ar
    28    10     5   ar
    29    24    27    1
    30    17    18    1
@<TRIPOS>MOLECULE
*****
 27 30 0 0 0
SMALL
GASTEIGER

@<TRIPOS>ATOM
      1 C         138.8622  140.3936  165.7953 C.ar    1  UNL1        0.1477
      2 N         139.7281  140.7582  166.9646 N.ar    1  UNL1       -0.2292
      3 C         140.3559  142.1185  167.0378 C.ar    1  UNL1        0.0873
      4 C         140.1178  143.1143  165.9416 C.ar    1  UNL1        0.0400
      5 C         139.2519  142.7498  164.7722 C.ar    1  UNL1        0.1032
      6 N         139.0139  143.7456  163.6760 N.ar    1  UNL1       -0.2405
      7 C         138.1480  143.3810  162.5066 C.ar    1  UNL1        0.1195
      8 C         137.5202  142.0207  162.4335 C.ar    1  UNL1        0.1196
      9 N         137.7583  141.0249  163.5297 N.ar    1  UNL1       -0.2379
     10 C         138.6241  141.3894  164.6990 C.ar    1  UNL1        0.1302
     11 C         141.2218  142.4831  168.2072 C.ar    1  UNL1        0.0573
     12 C         140.7665  143.1681  169.4616 C.ar    1  UNL1        0.1231
     13 N         141.9583  143.3350  170.3572 N.ar    1  UNL1       -0.1675
     14 N         143.1500  142.7531  169.6562 N.ar    1  UNL1       -0.2473
     15 C         144.5508  142.7060  170.1901 C.3     1  UNL1        0.1538
     16 C         142.6948  142.2266  168.3274 C.ar    1  UNL1        0.0982
     17 N         138.2344  139.0333  165.7222 N.pl3   1  UNL1       -0.3157
     18 H         137.2853  138.9160  165.9559 H       1  UNL1        0.1483
     19 C         139.0527  137.8517  165.2930 C.3     1  UNL1        0.1057
     20 C         142.0328  138.1966  165.3129 C.3     1  UNL1        0.0897
     21 N         141.3014  138.0673  164.0097 N.3     1  UNL1       -0.2689
     22 C         142.0601  138.1104  162.7164 C.3     1  UNL1        0.0895
     23 C         141.3287  137.9810  161.4131 C.3     1  UNL1        0.0862
     24 N         139.8387  137.8086  161.4032 N.3     1  UNL1       -0.2951
     25 C         139.0800  137.7655  162.6965 C.3     1  UNL1        0.0865
     26 C         139.8114  137.8948  163.9997 C.3     1  UNL1        0.0931
     27 H         139.6471  136.9310  160.9200 H       1  UNL1        0.1233
@<TRIPOS>BOND
     1    20    21    1
     2    21    22    1
     3    22    23    1
     4    23    24    1
     5    24    25    1
     6    25    26    1
     7    26    19    1
     8    19    17    1
     9    17     1    1
    10     1     2   ar
    11     2     3   ar
    12     3    11    1
    13    11    12   ar
    14    12    13   ar
    15    13    14   ar
    16    14    15    1
    17    14    16   ar
    18     3     4   ar
    19     4     5   ar
    20     5     6   ar
    21     6     7   ar
    22     7     8   ar
    23     8     9   ar
    24     9    10   ar
    25    26    21    1
    26    10     1   ar
    27    16    11   ar
    28    10     5   ar
    29    24    27    1
    30    17    18    1
@<TRIPOS>MOLECULE
*****
 27 30 0 0 0
SMALL
GASTEIGER

@<TRIPOS>ATOM
      1 C         142.4013  140.6487  166.5761 C.ar    1  UNL1        0.1477
      2 N         141.7003  141.5081  165.5662 N.ar    1  UNL1       -0.2292
      3 C         140.7940  142.6132  166.0217 C.ar    1  UNL1        0.0873
      4 C         140.5888  142.8589  167.4871 C.ar    1  UNL1        0.0400
      5 C         141.2898  141.9995  168.4971 C.ar    1  UNL1        0.1032
      6 N         141.0846  142.2452  169.9625 N.ar    1  UNL1       -0.2405
      7 C         141.7856  141.3858  170.9724 C.ar    1  UNL1        0.1195
      8 C         142.6918  140.2807  170.5169 C.ar    1  UNL1        0.1196
      9 N         142.8971  140.0350  169.0515 N.ar    1  UNL1       -0.2379
     10 C         142.1961  140.8944  168.0416 C.ar    1  UNL1        0.1302
     11 C         140.0930  143.4726  165.0117 C.ar    1  UNL1        0.0573
     12 C         138.6087  143.5807  164.8246 C.ar    1  UNL1        0.1231
     13 N         138.3515  144.5497  163.7088 N.ar    1  UNL1       -0.1675
     14 N         139.6770  145.0404  163.2063 N.ar    1  UNL1       -0.2473
     15 C         139.8889  146.0240  162.0939 C.3     1  UNL1        0.1538
     16 C         140.7533  144.3747  164.0115 C.ar    1  UNL1        0.0982
     17 N         143.3076  139.5436  166.1206 N.pl3   1  UNL1       -0.3157
     18 H         144.2446  139.5198  166.4218 H       1  UNL1        0.1483
     19 C         142.7862  138.4749  165.2064 C.3     1  UNL1        0.1057
     20 C         140.9160  137.1596  163.2641 C.3     1  UNL1        0.0897
     21 N         142.1261  137.8902  162.7625 N.3     1  UNL1       -0.2689
     22 C         142.4012  137.9633  161.2897 C.3     1  UNL1        0.0895
     23 C         143.6114  138.6940  160.7881 C.3     1  UNL1        0.0862
     24 N         144.5464  139.3516  161.7593 N.3     1  UNL1       -0.2951
     25 C         144.2714  139.2785  163.2320 C.3     1  UNL1        0.0865
     26 C         143.0613  138.5479  163.7336 C.3     1  UNL1        0.0931
     27 H         144.5773  140.3412  161.5142 H       1  UNL1        0.1233
@<TRIPOS>BOND
     1    20    21    1
     2    21    22    1
     3    22    23    1
     4    23    24    1
     5    24    25    1
     6    25    26    1
     7    26    19    1
     8    19    17    1
     9    17     1    1
    10     1     2   ar
    11     2     3   ar
    12     3    11    1
    13    11    12   ar
    14    12    13   ar
    15    13    14   ar
    16    14    15    1
    17    14    16   ar
    18     3     4   ar
    19     4     5   ar
    20     5     6   ar
    21     6     7   ar
    22     7     8   ar
    23     8     9   ar
    24     9    10   ar
    25    26    21    1
    26    10     1   ar
    27    16    11   ar
    28    10     5   ar
    29    24    27    1
    30    17    18    1
@<TRIPOS>MOLECULE
*****
 27 30 0 0 0
SMALL
GASTEIGER

@<TRIPOS>ATOM
      1 C         140.7569  143.9729  164.5145 C.ar    1  UNL1        0.1477
      2 N         140.1866  143.1639  165.6415 N.ar    1  UNL1       -0.2292
      3 C         140.9398  141.9796  166.1708 C.ar    1  UNL1        0.0873
      4 C         142.2634  141.6043  165.5731 C.ar    1  UNL1        0.0400
      5 C         142.8338  142.4134  164.4461 C.ar    1  UNL1        0.1032
      6 N         144.1574  142.0382  163.8484 N.ar    1  UNL1       -0.2405
      7 C         144.7278  142.8472  162.7214 C.ar    1  UNL1        0.1195
      8 C         143.9745  144.0315  162.1921 C.ar    1  UNL1        0.1196
      9 N         142.6510  144.4067  162.7898 N.ar    1  UNL1       -0.2379
     10 C         142.0806  143.5977  163.9168 C.ar    1  UNL1        0.1302
     11 C         140.3694  141.1705  167.2978 C.ar    1  UNL1        0.0573
     12 C         139.2782  140.1475  167.1845 C.ar    1  UNL1        0.1231
     13 N         139.0244  139.5871  168.5526 N.ar    1  UNL1       -0.1675
     14 N         139.9587  140.2639  169.5114 N.ar    1  UNL1       -0.2473
     15 C         140.0464  140.0072  170.9865 C.3     1  UNL1        0.1538
     16 C         140.7899  141.2425  168.7358 C.ar    1  UNL1        0.0982
     17 N         140.0037  145.1572  163.9853 N.pl3   1  UNL1       -0.3157
     18 H         140.3028  146.0691  164.2049 H       1  UNL1        0.1483
     19 C         138.7948  144.9521  163.1213 C.3     1  UNL1        0.1057
     20 C         139.9559  143.7454  160.6322 C.3     1  UNL1        0.0897
     21 N         138.9783  142.9639  161.4589 N.3     1  UNL1       -0.2689
     22 C         138.5811  141.5791  161.0411 C.3     1  UNL1        0.0895
     23 C         137.6034  140.7977  161.8679 C.3     1  UNL1        0.0862
     24 N         137.0229  141.4011  163.1125 N.3     1  UNL1       -0.2951
     25 C         137.4200  142.7859  163.5302 C.3     1  UNL1        0.0865
     26 C         138.3977  143.5673  162.7035 C.3     1  UNL1        0.0931
     27 H         137.2680  140.7794  163.8831 H       1  UNL1        0.1233
@<TRIPOS>BOND
     1    20    21    1
     2    21    22    1
     3    22    23    1
     4    23    24    1
     5    24    25    1
     6    25    26    1
     7    26    19    1
     8    19    17    1
     9    17     1    1
    10     1     2   ar
    11     2     3   ar
    12     3    11    1
    13    11    12   ar
    14    12    13   ar
    15    13    14   ar
    16    14    15    1
    17    14    16   ar
    18     3     4   ar
    19     4     5   ar
    20     5     6   ar
    21     6     7   ar
    22     7     8   ar
    23     8     9   ar
    24     9    10   ar
    25    26    21    1
    26    10     1   ar
    27    16    11   ar
    28    10     5   ar
    29    24    27    1
    30    17    18    1
@<TRIPOS>MOLECULE
*****
 27 30 0 0 0
SMALL
GASTEIGER

@<TRIPOS>ATOM
      1 C         142.3931  140.5560  166.3133 C.ar    1  UNL1        0.1477
      2 N         141.6946  141.4727  165.3532 N.ar    1  UNL1       -0.2292
      3 C         140.7790  142.5428  165.8693 C.ar    1  UNL1        0.0873
      4 C         140.5617  142.6963  167.3455 C.ar    1  UNL1        0.0400
      5 C         141.2602  141.7796  168.3057 C.ar    1  UNL1        0.1032
      6 N         141.0430  141.9331  169.7819 N.ar    1  UNL1       -0.2405
      7 C         141.7415  141.0165  170.7420 C.ar    1  UNL1        0.1195
      8 C         142.6571  139.9463  170.2259 C.ar    1  UNL1        0.1196
      9 N         142.8743  139.7928  168.7497 N.ar    1  UNL1       -0.2379
     10 C         142.1759  140.7095  167.7896 C.ar    1  UNL1        0.1302
     11 C         140.0805  143.4595  164.9091 C.ar    1  UNL1        0.0573
     12 C         138.5986  143.6699  164.8107 C.ar    1  UNL1        0.1231
     13 N         138.3435  144.6672  163.7195 N.ar    1  UNL1       -0.1675
     14 N         139.6678  145.0730  163.1436 N.ar    1  UNL1       -0.2473
     15 C         139.8811  146.0531  162.0284 C.3     1  UNL1        0.1538
     16 C         140.7413  144.3266  163.8788 C.ar    1  UNL1        0.0982
     17 N         143.3087  139.4859  165.7972 N.pl3   1  UNL1       -0.3157
     18 H         144.2718  139.6663  165.7012 H       1  UNL1        0.1483
     19 C         142.7571  138.1410  165.4274 C.3     1  UNL1        0.1057
     20 C         143.4589  138.3513  162.5182 C.3     1  UNL1        0.0897
     21 N         142.0332  138.1366  162.9321 N.3     1  UNL1       -0.2689
     22 C         140.9584  138.0271  161.8916 C.3     1  UNL1        0.0895
     23 C         139.5327  137.8124  162.3056 C.3     1  UNL1        0.0862
     24 N         139.1819  137.7072  163.7601 N.3     1  UNL1       -0.2951
     25 C         140.2567  137.8168  164.8007 C.3     1  UNL1        0.0865
     26 C         141.6823  138.0314  164.3868 C.3     1  UNL1        0.0931
     27 H         138.7370  136.7987  163.8908 H       1  UNL1        0.1233
@<TRIPOS>BOND
     1    20    21    1
     2    21    22    1
     3    22    23    1
     4    23    24    1
     5    24    25    1
     6    25    26    1
     7    26    19    1
     8    19    17    1
     9    17     1    1
    10     1     2   ar
    11     2     3   ar
    12     3    11    1
    13    11    12   ar
    14    12    13   ar
    15    13    14   ar
    16    14    15    1
    17    14    16   ar
    18     3     4   ar
    19     4     5   ar
    20     5     6   ar
    21     6     7   ar
    22     7     8   ar
    23     8     9   ar
    24     9    10   ar
    25    26    21    1
    26    10     1   ar
    27    16    11   ar
    28    10     5   ar
    29    24    27    1
    30    17    18    1
@<TRIPOS>MOLECULE
*****
 27 30 0 0 0
SMALL
GASTEIGER

@<TRIPOS>ATOM
      1 C         138.3477  141.4118  164.2344 C.ar    1  UNL1        0.1477
      2 N         138.7499  140.7269  165.5068 N.ar    1  UNL1       -0.2292
      3 C         139.8042  141.3337  166.3844 C.ar    1  UNL1        0.0873
      4 C         140.4564  142.6255  165.9895 C.ar    1  UNL1        0.0400
      5 C         140.0542  143.3105  164.7171 C.ar    1  UNL1        0.1032
      6 N         140.7064  144.6023  164.3222 N.ar    1  UNL1       -0.2405
      7 C         140.3042  145.2872  163.0498 C.ar    1  UNL1        0.1195
      8 C         139.2498  144.6804  162.1722 C.ar    1  UNL1        0.1196
      9 N         138.5977  143.3886  162.5671 N.ar    1  UNL1       -0.2379
     10 C         138.9998  142.7037  163.8395 C.ar    1  UNL1        0.1302
     11 C         140.2064  140.6487  167.6569 C.ar    1  UNL1        0.0573
     12 C         139.3050  140.3421  168.8160 C.ar    1  UNL1        0.1231
     13 N         140.1220  139.6540  169.8691 N.ar    1  UNL1       -0.1675
     14 N         141.5283  139.5353  169.3608 N.ar    1  UNL1       -0.2473
     15 C         142.6802  138.9114  170.0914 C.3     1  UNL1        0.1538
     16 C         141.5804  140.1501  167.9935 C.ar    1  UNL1        0.0982
     17 N         137.2933  140.8050  163.3569 N.pl3   1  UNL1       -0.3157
     18 H         136.3409  140.9415  163.5654 H       1  UNL1        0.1483
     19 C         137.6901  139.9902  162.1617 C.3     1  UNL1        0.1057
     20 C         140.0180  140.9811  160.5496 C.3     1  UNL1        0.0897
     21 N         140.1478  139.7265  161.3614 N.3     1  UNL1       -0.2689
     22 C         141.4414  138.9673  161.3671 C.3     1  UNL1        0.0895
     23 C         141.5711  137.7126  162.1790 C.3     1  UNL1        0.0862
     24 N         140.4071  137.2171  162.9850 N.3     1  UNL1       -0.2951
     25 C         139.1135  137.9763  162.9792 C.3     1  UNL1        0.0865
     26 C         138.9838  139.2310  162.1674 C.3     1  UNL1        0.0931
     27 H         140.7184  137.1731  163.9553 H       1  UNL1        0.1233
@<TRIPOS>BOND
     1    20    21    1
     2    21    22    1
     3    22    23    1
     4    23    24    1
     5    24    25    1
     6    25    26    1
     7    26    19    1
     8    19    17    1
     9    17     1    1
    10     1     2   ar
    11     2     3   ar
    12     3    11    1
    13    11    12   ar
    14    12    13   ar
    15    13    14   ar
    16    14    15    1
    17    14    16   ar
    18     3     4   ar
    19     4     5   ar
    20     5     6   ar
    21     6     7   ar
    22     7     8   ar
    23     8     9   ar
    24     9    10   ar
    25    26    21    1
    26    10     1   ar
    27    16    11   ar
    28    10     5   ar
    29    24    27    1
    30    17    18    1
@<TRIPOS>MOLECULE
*****
 27 30 0 0 0
SMALL
GASTEIGER

@<TRIPOS>ATOM
      1 C         138.3897  141.1697  164.5970 C.ar    1  UNL1        0.1477
      2 N         139.2333  141.1560  165.8371 N.ar    1  UNL1       -0.2292
      3 C         140.2268  140.0537  166.0562 C.ar    1  UNL1        0.0873
      4 C         140.3766  138.9652  165.0351 C.ar    1  UNL1        0.0400
      5 C         139.5329  138.9789  163.7949 C.ar    1  UNL1        0.1032
      6 N         139.6827  137.8904  162.7738 N.ar    1  UNL1       -0.2405
      7 C         138.8391  137.9042  161.5336 C.ar    1  UNL1        0.1195
      8 C         137.8456  139.0065  161.3146 C.ar    1  UNL1        0.1196
      9 N         137.6958  140.0950  162.3357 N.ar    1  UNL1       -0.2379
     10 C         138.5395  140.0812  163.5758 C.ar    1  UNL1        0.1302
     11 C         141.0705  140.0400  167.2964 C.ar    1  UNL1        0.0573
     12 C         142.4424  139.4468  167.4228 C.ar    1  UNL1        0.1231
     13 N         142.9103  139.6572  168.8325 N.ar    1  UNL1       -0.1675
     14 N         141.8274  140.3804  169.5771 N.ar    1  UNL1       -0.2473
     15 C         141.8735  140.7943  171.0181 C.3     1  UNL1        0.1538
     16 C         140.6904  140.6169  168.6278 C.ar    1  UNL1        0.0982
     17 N         137.3962  142.2720  164.3779 N.pl3   1  UNL1       -0.3157
     18 H         136.5782  142.3132  164.9243 H       1  UNL1        0.1483
     19 C         137.6489  143.3115  163.3265 C.3     1  UNL1        0.1057
     20 C         139.1683  142.9409  160.7663 C.3     1  UNL1        0.0897
     21 N         139.7771  143.7211  161.8935 N.3     1  UNL1       -0.2689
     22 C         141.1455  144.3160  161.7406 C.3     1  UNL1        0.0895
     23 C         141.7543  145.0963  162.8679 C.3     1  UNL1        0.0862
     24 N         140.9947  145.2815  164.1480 N.3     1  UNL1       -0.2951
     25 C         139.6262  144.6866  164.3008 C.3     1  UNL1        0.0865
     26 C         139.0174  143.9064  163.1736 C.3     1  UNL1        0.0931
     27 H         140.8961  146.2869  164.2890 H       1  UNL1        0.1233
@<TRIPOS>BOND
     1    20    21    1
     2    21    22    1
     3    22    23    1
     4    23    24    1
     5    24    25    1
     6    25    26    1
     7    26    19    1
     8    19    17    1
     9    17     1    1
    10     1     2   ar
    11     2     3   ar
    12     3    11    1
    13    11    12   ar
    14    12    13   ar
    15    13    14   ar
    16    14    15    1
    17    14    16   ar
    18     3     4   ar
    19     4     5   ar
    20     5     6   ar
    21     6     7   ar
    22     7     8   ar
    23     8     9   ar
    24     9    10   ar
    25    26    21    1
    26    10     1   ar
    27    16    11   ar
    28    10     5   ar
    29    24    27    1
    30    17    18    1
@<TRIPOS>MOLECULE
*****
 27 30 0 0 0
SMALL
GASTEIGER

@<TRIPOS>ATOM
      1 C         138.9513  140.2647  164.3438 C.ar    1  UNL1        0.1477
      2 N         139.5035  140.3911  165.7327 N.ar    1  UNL1       -0.2292
      3 C         140.8247  139.7682  166.0741 C.ar    1  UNL1        0.0873
      4 C         141.5936  139.0189  165.0266 C.ar    1  UNL1        0.0400
      5 C         141.0414  138.8925  163.6376 C.ar    1  UNL1        0.1032
      6 N         141.8103  138.1432  162.5901 N.ar    1  UNL1       -0.2405
      7 C         141.2581  138.0168  161.2012 C.ar    1  UNL1        0.1195
      8 C         139.9369  138.6397  160.8599 C.ar    1  UNL1        0.1196
      9 N         139.1680  139.3890  161.9074 N.ar    1  UNL1       -0.2379
     10 C         139.7202  139.5154  163.2962 C.ar    1  UNL1        0.1302
     11 C         141.3769  139.8946  167.4630 C.ar    1  UNL1        0.0573
     12 C         142.7030  139.3762  167.9351 C.ar    1  UNL1        0.1231
     13 N         142.8457  139.7228  169.3876 N.ar    1  UNL1       -0.1675
     14 N         141.6077  140.4553  169.8131 N.ar    1  UNL1       -0.2473
     15 C         141.3269  140.9881  171.1868 C.3     1  UNL1        0.1538
     16 C         140.7000  140.5615  168.6237 C.ar    1  UNL1        0.0982
     17 N         137.6302  140.8876  164.0024 N.pl3   1  UNL1       -0.3157
     18 H         136.8701  140.3185  163.7424 H       1  UNL1        0.1483
     19 C         137.4670  142.3777  164.0572 C.3     1  UNL1        0.1057
     20 C         138.8462  144.8198  165.1222 C.3     1  UNL1        0.0897
     21 N         138.9504  144.4746  163.6662 N.3     1  UNL1       -0.2689
     22 C         139.7442  145.3504  162.7427 C.3     1  UNL1        0.0895
     23 C         139.8484  145.0052  161.2867 C.3     1  UNL1        0.0862
     24 N         139.1588  143.7842  160.7542 N.3     1  UNL1       -0.2951
     25 C         138.3650  142.9083  161.6777 C.3     1  UNL1        0.0865
     26 C         138.2608  143.2535  163.1337 C.3     1  UNL1        0.0931
     27 H         139.8810  143.1958  160.3387 H       1  UNL1        0.1233
@<TRIPOS>BOND
     1    20    21    1
     2    21    22    1
     3    22    23    1
     4    23    24    1
     5    24    25    1
     6    25    26    1
     7    26    19    1
     8    19    17    1
     9    17     1    1
    10     1     2   ar
    11     2     3   ar
    12     3    11    1
    13    11    12   ar
    14    12    13   ar
    15    13    14   ar
    16    14    15    1
    17    14    16   ar
    18     3     4   ar
    19     4     5   ar
    20     5     6   ar
    21     6     7   ar
    22     7     8   ar
    23     8     9   ar
    24     9    10   ar
    25    26    21    1
    26    10     1   ar
    27    16    11   ar
    28    10     5   ar
    29    24    27    1
    30    17    18    1
@<TRIPOS>MOLECULE
*****
 27 30 0 0 0
SMALL
GASTEIGER

@<TRIPOS>ATOM
      1 C         142.2924  139.2237  165.7758 C.ar    1  UNL1        0.1477
      2 N         141.3139  139.5296  164.6809 N.ar    1  UNL1       -0.2292
      3 C         139.9529  140.0623  165.0186 C.ar    1  UNL1        0.0873
      4 C         139.5705  140.2892  166.4511 C.ar    1  UNL1        0.0400
      5 C         140.5490  139.9833  167.5461 C.ar    1  UNL1        0.1032
      6 N         140.1666  140.2101  168.9787 N.ar    1  UNL1       -0.2405
      7 C         141.1452  139.9042  170.0736 C.ar    1  UNL1        0.1195
      8 C         142.5061  139.3715  169.7359 C.ar    1  UNL1        0.1196
      9 N         142.8885  139.1446  168.3034 N.ar    1  UNL1       -0.2379
     10 C         141.9100  139.4505  167.2085 C.ar    1  UNL1        0.1302
     11 C         138.9744  140.3682  163.9236 C.ar    1  UNL1        0.0573
     12 C         137.9314  141.4459  163.9491 C.ar    1  UNL1        0.1231
     13 N         137.1794  141.3939  162.6521 N.ar    1  UNL1       -0.1675
     14 N         137.7577  140.2840  161.8252 N.ar    1  UNL1       -0.2473
     15 C         137.3060  139.8791  160.4534 C.3     1  UNL1        0.1538
     16 C         138.8671  139.6501  162.6110 C.ar    1  UNL1        0.0982
     17 N         143.6534  138.6910  165.4382 N.pl3   1  UNL1       -0.3157
     18 H         143.9370  137.8126  165.7806 H       1  UNL1        0.1483
     19 C         144.5821  139.4965  164.5789 C.3     1  UNL1        0.1057
     20 C         144.9611  142.1415  163.2149 C.3     1  UNL1        0.0897
     21 N         144.5093  140.9487  162.4257 N.3     1  UNL1       -0.2689
     22 C         144.2469  141.0783  160.9545 C.3     1  UNL1        0.0895
     23 C         143.7951  139.8854  160.1653 C.3     1  UNL1        0.0862
     24 N         143.6055  138.5629  160.8473 N.3     1  UNL1       -0.2951
     25 C         143.8679  138.4333  162.3185 C.3     1  UNL1        0.0865
     26 C         144.3198  139.6261  163.1077 C.3     1  UNL1        0.0931
     27 H         144.2219  137.8989  160.3786 H       1  UNL1        0.1233
@<TRIPOS>BOND
     1    20    21    1
     2    21    22    1
     3    22    23    1
     4    23    24    1
     5    24    25    1
     6    25    26    1
     7    26    19    1
     8    19    17    1
     9    17     1    1
    10     1     2   ar
    11     2     3   ar
    12     3    11    1
    13    11    12   ar
    14    12    13   ar
    15    13    14   ar
    16    14    15    1
    17    14    16   ar
    18     3     4   ar
    19     4     5   ar
    20     5     6   ar
    21     6     7   ar
    22     7     8   ar
    23     8     9   ar
    24     9    10   ar
    25    26    21    1
    26    10     1   ar
    27    16    11   ar
    28    10     5   ar
    29    24    27    1
    30    17    18    1
