@<TRIPOS>MOLECULE
*****
 45 51 0 0 0
SMALL
GASTEIGER

@<TRIPOS>ATOM
      1 C         137.8341  143.0332  162.7835 C.3     1  UNL1        0.0932
      2 C         137.5486  141.7895  163.5720 C.3     1  UNL1        0.0286
      3 C         137.6498  140.4449  162.9147 C.3     1  UNL1        0.0193
      4 C         138.0367  140.3441  161.4690 C.3     1  UNL1        0.0700
      5 C         138.3222  141.5879  160.6805 C.3     1  UNL1        0.0193
      6 C         138.2209  142.9323  161.3377 C.3     1  UNL1        0.0286
      7 C         137.9942  141.1030  161.7857 C.3     1  UNL1        0.1562
      8 O         137.9026  142.3187  162.3800 O.3     1  UNL1       -0.3572
      9 N         138.1379  138.9996  160.8117 N.3     1  UNL1       -0.2926
     10 H         137.6260  139.0628  159.9317 H       1  UNL1        0.1236
     11 C         139.4841  138.4221  160.4891 C.3     1  UNL1        0.1152
     12 C         140.5946  138.5007  161.4945 C.ar    1  UNL1        0.0765
     13 C         140.6155  137.5613  162.6637 C.ar    1  UNL1        0.0193
     14 C         141.7259  137.6399  163.6691 C.ar    1  UNL1        0.0411
     15 C         142.8152  138.6579  163.5054 C.ar    1  UNL1        0.1708
     16 C         142.7942  139.5974  162.3362 C.ar    1  UNL1        0.1682
     17 N         141.6839  139.5188  161.3307 N.ar    1  UNL1       -0.2304
     18 N         143.8837  140.6155  162.1724 N.am    1  UNL1       -0.2639
     19 C         144.9940  140.6941  163.1779 C.2     1  UNL1        0.2718
     20 O         146.0834  141.7122  163.0141 O.2     1  UNL1       -0.2707
     21 C         145.0150  139.7546  164.3471 C.3     1  UNL1        0.2898
     22 O         143.9256  138.7366  164.5108 O.3     1  UNL1       -0.4628
     23 H         143.8699  141.2321  161.4051 H       1  UNL1        0.1565
     24 C         137.7328  144.3777  163.4408 C.3     1  UNL1        0.0320
     25 C         138.8008  144.8299  164.3920 C.3     1  UNL1        0.0327
     26 C         140.6464  141.9872  167.3523 C.ar    1  UNL1        0.2250
     27 C         142.0612  141.5248  167.1663 C.ar    1  UNL1        0.0593
     28 C         142.8607  142.0100  165.9936 C.ar    1  UNL1        0.0254
     29 C         142.2455  142.9575  165.0069 C.ar    1  UNL1        0.0990
     30 N         143.0452  143.4427  163.8341 N.ar    1  UNL1       -0.2400
     31 C         142.4299  144.3902  162.8473 C.ar    1  UNL1        0.1281
     32 C         141.0151  144.8526  163.0334 C.ar    1  UNL1        0.1566
     33 F         140.3999  145.8002  162.0466 F       1  UNL1       -0.2028
     34 C         140.2156  144.3675  164.2061 C.ar    1  UNL1        0.0261
     35 C         140.8308  143.4199  165.1928 C.ar    1  UNL1        0.1002
     36 N         140.0312  142.9348  166.3655 N.ar    1  UNL1       -0.2104
     37 O         139.8468  141.5021  168.5251 O.3     1  UNL1       -0.4575
     38 C         139.3745  140.0792  168.5737 C.3     1  UNL1        0.2378
     39 N         136.7846  137.7252  167.6440 N.3     1  UNL1       -0.3181
     40 C         137.9142  138.3988  166.9228 C.3     1  UNL1        0.1121
     41 C         138.4389  138.3763  165.5177 C.3     1  UNL1        0.1602
     42 O         139.5117  139.3514  165.9029 O.3     1  UNL1       -0.3495
     43 C         138.9870  139.3739  167.3079 C.3     1  UNL1        0.1753
     44 H         136.2801  137.1203  166.9959 H       1  UNL1        0.1190
     45 H         136.1488  138.4314  168.0149 H       1  UNL1        0.1190
@<TRIPOS>BOND
     1    40    39    1
     2    40    41    1
     3    41    42    1
     4    42    43    1
     5    43    38    1
     6    38    37    1
     7    37    26    1
     8    26    27   ar
     9    27    28   ar
    10    28    29   ar
    11    29    30   ar
    12    30    31   ar
    13    31    32   ar
    14    32    33    1
    15    32    34   ar
    16    34    25    1
    17    25    24    1
    18    24     1    1
    19     1     2    1
    20     2     3    1
    21     3     4    1
    22     4     9    1
    23     9    11    1
    24    11    12    1
    25    12    13   ar
    26    13    14   ar
    27    14    15   ar
    28    15    16   ar
    29    16    17   ar
    30    16    18    1
    31    18    19   am
    32    19    20    2
    33    19    21    1
    34    21    22    1
    35     4     5    1
    36     5     6    1
    37     4     7    1
    38     7     8    1
    39    34    35   ar
    40    35    36   ar
    41    43    40    1
    42    36    26   ar
    43    35    29   ar
    44     6     1    1
    45     8     1    1
    46    17    12   ar
    47    22    15    1
    48    39    44    1
    49    39    45    1
    50     9    10    1
    51    18    23    1
@<TRIPOS>MOLECULE
*****
 45 51 0 0 0
SMALL
GASTEIGER

@<TRIPOS>ATOM
      1 C         141.9612  138.1139  164.1337 C.3     1  UNL1        0.0932
      2 C         142.2263  138.4028  162.6859 C.3     1  UNL1        0.0286
      3 C         143.4164  139.2262  162.2911 C.3     1  UNL1        0.0193
      4 C         144.3413  139.7606  163.3442 C.3     1  UNL1        0.0700
      5 C         144.0761  139.4717  164.7921 C.3     1  UNL1        0.0193
      6 C         142.8861  138.6483  165.1868 C.3     1  UNL1        0.0286
      7 C         143.7021  139.3143  163.6091 C.3     1  UNL1        0.1562
      8 O         142.6260  138.5698  163.9660 O.3     1  UNL1       -0.3572
      9 N         145.5313  140.5840  162.9495 N.3     1  UNL1       -0.2926
     10 H         145.5955  140.5401  161.9324 H       1  UNL1        0.1236
     11 C         145.5976  142.0346  163.3254 C.3     1  UNL1        0.1152
     12 C         144.3956  142.9128  163.1412 C.ar    1  UNL1        0.0765
     13 C         143.7317  143.5351  164.3337 C.ar    1  UNL1        0.0193
     14 C         142.5297  144.4133  164.1496 C.ar    1  UNL1        0.0411
     15 C         141.9916  144.6692  162.7731 C.ar    1  UNL1        0.1708
     16 C         142.6555  144.0469  161.5806 C.ar    1  UNL1        0.1682
     17 N         143.8575  143.1687  161.7647 N.ar    1  UNL1       -0.2304
     18 N         142.1173  144.3028  160.2040 N.am    1  UNL1       -0.2639
     19 C         140.9153  145.1810  160.0199 C.2     1  UNL1        0.2718
     20 O         140.3772  145.4370  158.6433 O.2     1  UNL1       -0.2707
     21 C         140.2514  145.8034  161.2124 C.3     1  UNL1        0.2898
     22 O         140.7895  145.5475  162.5889 O.3     1  UNL1       -0.4628
     23 H         142.5530  143.8944  159.4213 H       1  UNL1        0.1565
     24 C         140.7711  137.2905  164.5285 C.3     1  UNL1        0.0320
     25 C         139.4969  137.9646  164.9431 C.3     1  UNL1        0.0327
     26 C         140.2721  142.0344  166.6999 C.ar    1  UNL1        0.2250
     27 C         139.8051  143.2639  165.9788 C.ar    1  UNL1        0.0593
     28 C         139.0797  143.1369  164.6720 C.ar    1  UNL1        0.0254
     29 C         138.8213  141.7803  164.0864 C.ar    1  UNL1        0.0990
     30 N         138.0959  141.6533  162.7796 N.ar    1  UNL1       -0.2400
     31 C         137.8375  140.2968  162.1940 C.ar    1  UNL1        0.1281
     32 C         138.3045  139.0672  162.9152 C.ar    1  UNL1        0.1566
     33 F         138.0461  137.7106  162.3296 F       1  UNL1       -0.2028
     34 C         139.0299  139.1942  164.2219 C.ar    1  UNL1        0.0261
     35 C         139.2883  140.5508  164.8076 C.ar    1  UNL1        0.1002
     36 N         140.0137  140.6778  166.1143 N.ar    1  UNL1       -0.2104
     37 O         140.9975  142.1613  168.0068 O.3     1  UNL1       -0.4575
     38 C         142.3729  141.5829  168.1603 C.3     1  UNL1        0.2378
     39 N         142.1111  140.7884  171.6837 N.3     1  UNL1       -0.3181
     40 C         142.4710  140.0197  170.4470 C.3     1  UNL1        0.1121
     41 C         142.8716  138.6035  170.1575 C.3     1  UNL1        0.1602
     42 O         142.9800  138.9326  168.6980 O.3     1  UNL1       -0.3495
     43 C         142.5795  140.3488  168.9876 C.3     1  UNL1        0.1753
     44 H         142.1619  140.1715  172.4944 H       1  UNL1        0.1190
     45 H         141.1630  141.1535  171.5932 H       1  UNL1        0.1190
@<TRIPOS>BOND
     1    40    39    1
     2    40    41    1
     3    41    42    1
     4    42    43    1
     5    43    38    1
     6    38    37    1
     7    37    26    1
     8    26    27   ar
     9    27    28   ar
    10    28    29   ar
    11    29    30   ar
    12    30    31   ar
    13    31    32   ar
    14    32    33    1
    15    32    34   ar
    16    34    25    1
    17    25    24    1
    18    24     1    1
    19     1     2    1
    20     2     3    1
    21     3     4    1
    22     4     9    1
    23     9    11    1
    24    11    12    1
    25    12    13   ar
    26    13    14   ar
    27    14    15   ar
    28    15    16   ar
    29    16    17   ar
    30    16    18    1
    31    18    19   am
    32    19    20    2
    33    19    21    1
    34    21    22    1
    35     4     5    1
    36     5     6    1
    37     4     7    1
    38     7     8    1
    39    34    35   ar
    40    35    36   ar
    41    43    40    1
    42    36    26   ar
    43    35    29   ar
    44     6     1    1
    45     8     1    1
    46    17    12   ar
    47    22    15    1
    48    39    44    1
    49    39    45    1
    50     9    10    1
    51    18    23    1
@<TRIPOS>MOLECULE
*****
 45 51 0 0 0
SMALL
GASTEIGER

@<TRIPOS>ATOM
      1 C         137.8364  143.0243  162.9891 C.3     1  UNL1        0.0932
      2 C         137.6052  141.8294  163.8658 C.3     1  UNL1        0.0286
      3 C         137.6484  140.4493  163.2795 C.3     1  UNL1        0.0193
      4 C         137.9228  140.2642  161.8165 C.3     1  UNL1        0.0700
      5 C         138.1540  141.4592  160.9398 C.3     1  UNL1        0.0193
      6 C         138.1108  142.8392  161.5260 C.3     1  UNL1        0.0286
      7 C         137.9090  141.0400  162.0923 C.3     1  UNL1        0.1562
      8 O         137.8699  142.2878  162.6224 O.3     1  UNL1       -0.3572
      9 N         137.9661  138.8843  161.2302 N.3     1  UNL1       -0.2926
     10 H         137.3995  138.9067  160.3824 H       1  UNL1        0.1236
     11 C         139.2820  138.2695  160.8556 C.3     1  UNL1        0.1152
     12 C         140.4564  138.3893  161.7811 C.ar    1  UNL1        0.0765
     13 C         140.5649  137.4885  162.9756 C.ar    1  UNL1        0.0193
     14 C         141.7393  137.6083  163.9010 C.ar    1  UNL1        0.0411
     15 C         142.8051  138.6289  163.6320 C.ar    1  UNL1        0.1708
     16 C         142.6965  139.5297  162.4375 C.ar    1  UNL1        0.1682
     17 N         141.5222  139.4099  161.5120 N.ar    1  UNL1       -0.2304
     18 N         143.7625  140.5503  162.1685 N.am    1  UNL1       -0.2639
     19 C         144.9368  140.6700  163.0940 C.2     1  UNL1        0.2718
     20 O         146.0027  141.6907  162.8250 O.2     1  UNL1       -0.2707
     21 C         145.0453  139.7692  164.2884 C.3     1  UNL1        0.2898
     22 O         143.9795  138.7487  164.5575 O.3     1  UNL1       -0.4628
     23 H         143.6912  141.1415  161.3845 H       1  UNL1        0.1565
     24 C         137.7932  144.4043  163.5753 C.3     1  UNL1        0.0320
     25 C         138.8656  144.8497  164.5250 C.3     1  UNL1        0.0327
     26 C         140.6702  141.6638  167.1409 C.ar    1  UNL1        0.2250
     27 C         142.0902  141.2314  166.9249 C.ar    1  UNL1        0.0593
     28 C         142.9086  141.8610  165.8369 C.ar    1  UNL1        0.0254
     29 C         142.3070  142.9230  164.9649 C.ar    1  UNL1        0.0990
     30 N         143.1255  143.5526  163.8769 N.ar    1  UNL1       -0.2400
     31 C         142.5240  144.6145  163.0049 C.ar    1  UNL1        0.1281
     32 C         141.1039  145.0469  163.2209 C.ar    1  UNL1        0.1566
     33 F         140.5024  146.1088  162.3490 F       1  UNL1       -0.2028
     34 C         140.2855  144.4173  164.3089 C.ar    1  UNL1        0.0261
     35 C         140.8871  143.3553  165.1809 C.ar    1  UNL1        0.1002
     36 N         140.0687  142.7258  166.2689 N.ar    1  UNL1       -0.2104
     37 O         139.8517  141.0342  168.2290 O.3     1  UNL1       -0.4575
     38 C         139.9896  141.5131  169.6438 C.3     1  UNL1        0.2378
     39 N         143.3612  140.5227  170.5187 N.3     1  UNL1       -0.3181
     40 C         142.6272  141.8281  170.4349 C.3     1  UNL1        0.1121
     41 C         142.9857  143.2641  170.6789 C.3     1  UNL1        0.1602
     42 O         141.5892  143.6743  170.3164 O.3     1  UNL1       -0.3495
     43 C         141.2307  142.2384  170.0725 C.3     1  UNL1        0.1753
     44 H         144.3232  140.6918  170.8126 H       1  UNL1        0.1190
     45 H         143.3594  140.0723  169.6035 H       1  UNL1        0.1190
@<TRIPOS>BOND
     1    40    39    1
     2    40    41    1
     3    41    42    1
     4    42    43    1
     5    43    38    1
     6    38    37    1
     7    37    26    1
     8    26    27   ar
     9    27    28   ar
    10    28    29   ar
    11    29    30   ar
    12    30    31   ar
    13    31    32   ar
    14    32    33    1
    15    32    34   ar
    16    34    25    1
    17    25    24    1
    18    24     1    1
    19     1     2    1
    20     2     3    1
    21     3     4    1
    22     4     9    1
    23     9    11    1
    24    11    12    1
    25    12    13   ar
    26    13    14   ar
    27    14    15   ar
    28    15    16   ar
    29    16    17   ar
    30    16    18    1
    31    18    19   am
    32    19    20    2
    33    19    21    1
    34    21    22    1
    35     4     5    1
    36     5     6    1
    37     4     7    1
    38     7     8    1
    39    34    35   ar
    40    35    36   ar
    41    43    40    1
    42    36    26   ar
    43    35    29   ar
    44     6     1    1
    45     8     1    1
    46    17    12   ar
    47    22    15    1
    48    39    44    1
    49    39    45    1
    50     9    10    1
    51    18    23    1
@<TRIPOS>MOLECULE
*****
 45 51 0 0 0
SMALL
GASTEIGER

@<TRIPOS>ATOM
      1 C         141.6754  138.3078  164.2147 C.3     1  UNL1        0.0932
      2 C         142.4475  139.0581  165.2591 C.3     1  UNL1        0.0286
      3 C         143.7023  139.7891  164.8834 C.3     1  UNL1        0.0193
      4 C         144.1850  139.7698  163.4633 C.3     1  UNL1        0.0700
      5 C         143.4128  139.0194  162.4189 C.3     1  UNL1        0.0193
      6 C         142.1580  138.2885  162.7946 C.3     1  UNL1        0.0286
      7 C         143.4918  139.3543  163.6213 C.3     1  UNL1        0.1562
      8 O         142.3572  138.6933  163.9610 O.3     1  UNL1       -0.3572
      9 N         145.4397  140.5008  163.0877 N.3     1  UNL1       -0.2926
     10 H         145.7875  140.0683  162.2318 H       1  UNL1        0.1236
     11 C         145.4007  141.9797  162.8405 C.3     1  UNL1        0.1152
     12 C         144.4054  142.5529  161.8755 C.ar    1  UNL1        0.0765
     13 C         144.4598  142.1700  160.4262 C.ar    1  UNL1        0.0193
     14 C         143.4647  142.7431  159.4613 C.ar    1  UNL1        0.0411
     15 C         142.4152  143.6990  159.9456 C.ar    1  UNL1        0.1708
     16 C         142.3608  144.0819  161.3949 C.ar    1  UNL1        0.1682
     17 N         143.3559  143.5088  162.3599 N.ar    1  UNL1       -0.2304
     18 N         141.3112  145.0379  161.8792 N.am    1  UNL1       -0.2639
     19 C         140.3161  145.6110  160.9142 C.2     1  UNL1        0.2718
     20 O         139.2665  146.5670  161.3985 O.2     1  UNL1       -0.2707
     21 C         140.3704  145.2281  159.4649 C.3     1  UNL1        0.2898
     22 O         141.4199  144.2722  158.9806 O.3     1  UNL1       -0.4628
     23 H         141.2755  145.2892  162.8304 H       1  UNL1        0.1565
     24 C         140.4205  137.5767  164.5903 C.3     1  UNL1        0.0320
     25 C         139.1512  138.3394  164.8294 C.3     1  UNL1        0.0327
     26 C         139.7633  142.6249  166.0582 C.ar    1  UNL1        0.2250
     27 C         139.3692  143.7350  165.1297 C.ar    1  UNL1        0.0593
     28 C         138.7710  143.4166  163.7915 C.ar    1  UNL1        0.0254
     29 C         138.5669  141.9881  163.3819 C.ar    1  UNL1        0.0990
     30 N         137.9687  141.6698  162.0436 N.ar    1  UNL1       -0.2400
     31 C         137.7647  140.2413  161.6340 C.ar    1  UNL1        0.1281
     32 C         138.1589  139.1312  162.5627 C.ar    1  UNL1        0.1566
     33 F         137.9548  137.7027  162.1530 F       1  UNL1       -0.2028
     34 C         138.7571  139.4495  163.9008 C.ar    1  UNL1        0.0261
     35 C         138.9611  140.8780  164.3104 C.ar    1  UNL1        0.1002
     36 N         139.5593  141.1964  165.6486 N.ar    1  UNL1       -0.2104
     37 O         140.3616  142.9433  167.3965 O.3     1  UNL1       -0.4575
     38 C         141.0972  141.8826  168.1606 C.3     1  UNL1        0.2378
     39 N         142.0479  142.0828  171.6492 N.3     1  UNL1       -0.3181
     40 C         142.7506  142.3102  170.3437 C.3     1  UNL1        0.1121
     41 C         144.1382  142.7146  169.9424 C.3     1  UNL1        0.1602
     42 O         143.7443  142.6317  168.4973 O.3     1  UNL1       -0.3495
     43 C         142.3568  142.2273  168.8986 C.3     1  UNL1        0.1753
     44 H         142.6961  142.2522  172.4183 H       1  UNL1        0.1190
     45 H         141.7135  141.1201  171.6921 H       1  UNL1        0.1190
@<TRIPOS>BOND
     1    40    39    1
     2    40    41    1
     3    41    42    1
     4    42    43    1
     5    43    38    1
     6    38    37    1
     7    37    26    1
     8    26    27   ar
     9    27    28   ar
    10    28    29   ar
    11    29    30   ar
    12    30    31   ar
    13    31    32   ar
    14    32    33    1
    15    32    34   ar
    16    34    25    1
    17    25    24    1
    18    24     1    1
    19     1     2    1
    20     2     3    1
    21     3     4    1
    22     4     9    1
    23     9    11    1
    24    11    12    1
    25    12    13   ar
    26    13    14   ar
    27    14    15   ar
    28    15    16   ar
    29    16    17   ar
    30    16    18    1
    31    18    19   am
    32    19    20    2
    33    19    21    1
    34    21    22    1
    35     4     5    1
    36     5     6    1
    37     4     7    1
    38     7     8    1
    39    34    35   ar
    40    35    36   ar
    41    43    40    1
    42    36    26   ar
    43    35    29   ar
    44     6     1    1
    45     8     1    1
    46    17    12   ar
    47    22    15    1
    48    39    44    1
    49    39    45    1
    50     9    10    1
    51    18    23    1
@<TRIPOS>MOLECULE
*****
 45 51 0 0 0
SMALL
GASTEIGER

@<TRIPOS>ATOM
      1 C         143.6056  142.1124  163.7040 C.3     1  UNL1        0.0932
      2 C         142.8373  142.7397  164.8292 C.3     1  UNL1        0.0286
      3 C         142.0694  144.0073  164.5980 C.3     1  UNL1        0.0193
      4 C         142.0698  144.6477  163.2416 C.3     1  UNL1        0.0700
      5 C         142.8382  144.0204  162.1163 C.3     1  UNL1        0.0193
      6 C         143.6061  142.7528  162.3475 C.3     1  UNL1        0.0286
      7 C         142.5055  143.9534  163.3200 C.3     1  UNL1        0.1562
      8 O         143.1998  142.8072  163.5291 O.3     1  UNL1       -0.3572
      9 N         141.3020  145.9153  163.0104 N.3     1  UNL1       -0.2926
     10 H         141.8742  146.4991  162.4002 H       1  UNL1        0.1236
     11 C         139.9331  145.8621  162.3995 C.3     1  UNL1        0.1152
     12 C         139.2438  144.5423  162.2173 C.ar    1  UNL1        0.0765
     13 C         138.4130  143.9704  163.3276 C.ar    1  UNL1        0.0193
     14 C         137.7239  142.6507  163.1455 C.ar    1  UNL1        0.0411
     15 C         137.8654  141.9028  161.8530 C.ar    1  UNL1        0.1708
     16 C         138.6962  142.4746  160.7427 C.ar    1  UNL1        0.1682
     17 N         139.3854  143.7944  160.9249 N.ar    1  UNL1       -0.2304
     18 N         138.8378  141.7266  159.4502 N.am    1  UNL1       -0.2639
     19 C         138.1486  140.4069  159.2680 C.2     1  UNL1        0.2718
     20 O         138.2902  139.6589  157.9755 O.2     1  UNL1       -0.2707
     21 C         137.3178  139.8350  160.3783 C.3     1  UNL1        0.2898
     22 O         137.1762  140.5830  161.6708 O.3     1  UNL1       -0.4628
     23 H         139.3831  142.1019  158.7214 H       1  UNL1        0.1565
     24 C         144.3735  140.8447  163.9351 C.3     1  UNL1        0.0320
     25 C         143.7770  139.7475  164.7660 C.3     1  UNL1        0.0327
     26 C         139.9704  140.1765  167.1272 C.ar    1  UNL1        0.2250
     27 C         138.7216  139.4833  166.6693 C.ar    1  UNL1        0.0593
     28 C         138.7416  138.6471  165.4242 C.ar    1  UNL1        0.0254
     29 C         140.0105  138.5041  164.6371 C.ar    1  UNL1        0.0990
     30 N         140.0305  137.6678  163.3919 N.ar    1  UNL1       -0.2400
     31 C         141.2993  137.5248  162.6048 C.ar    1  UNL1        0.1281
     32 C         142.5482  138.2180  163.0629 C.ar    1  UNL1        0.1566
     33 F         143.8171  138.0750  162.2758 F       1  UNL1       -0.2028
     34 C         142.5282  139.0543  164.3080 C.ar    1  UNL1        0.0261
     35 C         141.2593  139.1973  165.0951 C.ar    1  UNL1        0.1002
     36 N         141.2393  140.0335  166.3402 N.ar    1  UNL1       -0.2104
     37 O         139.9505  141.0128  168.3724 O.3     1  UNL1       -0.4575
     38 C         140.6703  142.3284  168.4039 C.3     1  UNL1        0.2378
     39 N         142.0405  142.1823  171.7528 N.3     1  UNL1       -0.3181
     40 C         142.6154  142.3552  170.3782 C.3     1  UNL1        0.1121
     41 C         143.9960  142.5392  169.8214 C.3     1  UNL1        0.1602
     42 O         143.4284  142.5998  168.4342 O.3     1  UNL1       -0.3495
     43 C         142.0479  142.4157  168.9910 C.3     1  UNL1        0.1753
     44 H         142.7933  142.1990  172.4408 H       1  UNL1        0.1190
     45 H         141.5506  141.2892  171.8065 H       1  UNL1        0.1190
@<TRIPOS>BOND
     1    40    39    1
     2    40    41    1
     3    41    42    1
     4    42    43    1
     5    43    38    1
     6    38    37    1
     7    37    26    1
     8    26    27   ar
     9    27    28   ar
    10    28    29   ar
    11    29    30   ar
    12    30    31   ar
    13    31    32   ar
    14    32    33    1
    15    32    34   ar
    16    34    25    1
    17    25    24    1
    18    24     1    1
    19     1     2    1
    20     2     3    1
    21     3     4    1
    22     4     9    1
    23     9    11    1
    24    11    12    1
    25    12    13   ar
    26    13    14   ar
    27    14    15   ar
    28    15    16   ar
    29    16    17   ar
    30    16    18    1
    31    18    19   am
    32    19    20    2
    33    19    21    1
    34    21    22    1
    35     4     5    1
    36     5     6    1
    37     4     7    1
    38     7     8    1
    39    34    35   ar
    40    35    36   ar
    41    43    40    1
    42    36    26   ar
    43    35    29   ar
    44     6     1    1
    45     8     1    1
    46    17    12   ar
    47    22    15    1
    48    39    44    1
    49    39    45    1
    50     9    10    1
    51    18    23    1
@<TRIPOS>MOLECULE
*****
 45 51 0 0 0
SMALL
GASTEIGER

@<TRIPOS>ATOM
      1 C         142.6657  142.0430  166.2968 C.3     1  UNL1        0.0932
      2 C         141.2667  142.5491  166.1050 C.3     1  UNL1        0.0286
      3 C         140.1012  141.7252  166.5662 C.3     1  UNL1        0.0193
      4 C         140.3346  140.3952  167.2194 C.3     1  UNL1        0.0700
      5 C         141.7336  139.8891  167.4112 C.3     1  UNL1        0.0193
      6 C         142.8991  140.7130  166.9500 C.3     1  UNL1        0.0286
      7 C         141.0049  140.8109  166.9831 C.3     1  UNL1        0.1562
      8 O         142.0588  141.5560  166.5660 O.3     1  UNL1       -0.3572
      9 N         139.1692  139.5713  167.6806 N.3     1  UNL1       -0.2926
     10 H         138.6406  140.1489  168.3344 H       1  UNL1        0.1236
     11 C         138.1859  139.0376  166.6816 C.3     1  UNL1        0.1152
     12 C         138.6322  138.7225  165.2845 C.ar    1  UNL1        0.0765
     13 C         139.6945  137.6895  165.0516 C.ar    1  UNL1        0.0193
     14 C         140.1408  137.3745  163.6546 C.ar    1  UNL1        0.0411
     15 C         139.5248  138.0925  162.4906 C.ar    1  UNL1        0.1708
     16 C         138.4624  139.1255  162.7236 C.ar    1  UNL1        0.1682
     17 N         138.0161  139.4405  164.1205 N.ar    1  UNL1       -0.2304
     18 N         137.8463  139.8434  161.5595 N.am    1  UNL1       -0.2639
     19 C         138.2926  139.5284  160.1625 C.2     1  UNL1        0.2718
     20 O         137.6766  140.2464  158.9984 O.2     1  UNL1       -0.2707
     21 C         139.3550  138.4954  159.9296 C.3     1  UNL1        0.2898
     22 O         139.9711  137.7774  161.0936 O.3     1  UNL1       -0.4628
     23 H         137.1490  140.5214  161.7124 H       1  UNL1        0.1565
     24 C         143.8312  142.8669  165.8356 C.3     1  UNL1        0.0320
     25 C         144.5667  142.4909  164.5835 C.3     1  UNL1        0.0327
     26 C         141.5870  143.9453  161.5411 C.ar    1  UNL1        0.2250
     27 C         140.9727  142.9794  160.5718 C.ar    1  UNL1        0.0593
     28 C         141.3516  141.5288  160.6166 C.ar    1  UNL1        0.0254
     29 C         142.3448  141.0440  161.6307 C.ar    1  UNL1        0.0990
     30 N         142.7237  139.5933  161.6755 N.ar    1  UNL1       -0.2400
     31 C         143.7169  139.1085  162.6896 C.ar    1  UNL1        0.1281
     32 C         144.3313  140.0744  163.6590 C.ar    1  UNL1        0.1566
     33 F         145.3245  139.5897  164.6731 F       1  UNL1       -0.2028
     34 C         143.9524  141.5251  163.6142 C.ar    1  UNL1        0.0261
     35 C         142.9592  142.0098  162.6000 C.ar    1  UNL1        0.1002
     36 N         142.5803  143.4605  162.5552 N.ar    1  UNL1       -0.2104
     37 O         141.2081  145.3960  161.4964 O.3     1  UNL1       -0.4575
     38 C         139.8597  145.8344  161.9856 C.3     1  UNL1        0.2378
     39 N         137.5617  143.0492  161.7104 N.3     1  UNL1       -0.3181
     40 C         138.1510  143.8296  162.8477 C.3     1  UNL1        0.1121
     41 C         138.0325  143.7796  164.3422 C.3     1  UNL1        0.1602
     42 O         138.9843  144.9333  164.4562 O.3     1  UNL1       -0.3495
     43 C         139.1028  144.9833  162.9618 C.3     1  UNL1        0.1753
     44 H         136.9429  142.3266  162.0784 H       1  UNL1        0.1190
     45 H         138.3111  142.6135  161.1727 H       1  UNL1        0.1190
@<TRIPOS>BOND
     1    40    39    1
     2    40    41    1
     3    41    42    1
     4    42    43    1
     5    43    38    1
     6    38    37    1
     7    37    26    1
     8    26    27   ar
     9    27    28   ar
    10    28    29   ar
    11    29    30   ar
    12    30    31   ar
    13    31    32   ar
    14    32    33    1
    15    32    34   ar
    16    34    25    1
    17    25    24    1
    18    24     1    1
    19     1     2    1
    20     2     3    1
    21     3     4    1
    22     4     9    1
    23     9    11    1
    24    11    12    1
    25    12    13   ar
    26    13    14   ar
    27    14    15   ar
    28    15    16   ar
    29    16    17   ar
    30    16    18    1
    31    18    19   am
    32    19    20    2
    33    19    21    1
    34    21    22    1
    35     4     5    1
    36     5     6    1
    37     4     7    1
    38     7     8    1
    39    34    35   ar
    40    35    36   ar
    41    43    40    1
    42    36    26   ar
    43    35    29   ar
    44     6     1    1
    45     8     1    1
    46    17    12   ar
    47    22    15    1
    48    39    44    1
    49    39    45    1
    50     9    10    1
    51    18    23    1
@<TRIPOS>MOLECULE
*****
 45 51 0 0 0
SMALL
GASTEIGER

@<TRIPOS>ATOM
      1 C         144.9427  140.9094  162.6883 C.3     1  UNL1        0.0932
      2 C         144.5468  139.5541  163.1945 C.3     1  UNL1        0.0286
      3 C         143.8085  138.6048  162.2979 C.3     1  UNL1        0.0193
      4 C         143.4660  139.0110  160.8951 C.3     1  UNL1        0.0700
      5 C         143.8620  140.3664  160.3889 C.3     1  UNL1        0.0193
      6 C         144.6003  141.3156  161.2855 C.3     1  UNL1        0.0286
      7 C         143.8716  139.5653  161.3492 C.3     1  UNL1        0.1562
      8 O         144.5392  140.4236  162.1600 O.3     1  UNL1       -0.3572
      9 N         142.7277  138.0618  159.9985 N.3     1  UNL1       -0.2926
     10 H         142.6950  137.1646  160.4827 H       1  UNL1        0.1236
     11 C         141.3247  138.3735  159.5692 C.3     1  UNL1        0.1152
     12 C         140.3584  138.9772  160.5448 C.ar    1  UNL1        0.0765
     13 C         139.6169  138.0978  161.5076 C.ar    1  UNL1        0.0193
     14 C         138.6506  138.7015  162.4832 C.ar    1  UNL1        0.0411
     15 C         138.4258  140.1844  162.4961 C.ar    1  UNL1        0.1708
     16 C         139.1674  141.0638  161.5333 C.ar    1  UNL1        0.1682
     17 N         140.1336  140.4602  160.5577 N.ar    1  UNL1       -0.2304
     18 N         138.9425  142.5469  161.5462 N.am    1  UNL1       -0.2639
     19 C         137.9763  143.1505  162.5219 C.2     1  UNL1        0.2718
     20 O         137.7514  144.6335  162.5348 O.2     1  UNL1       -0.2707
     21 C         137.2347  142.2711  163.4846 C.3     1  UNL1        0.2898
     22 O         137.4595  140.7881  163.4718 O.3     1  UNL1       -0.4628
     23 H         139.4292  143.1240  160.9144 H       1  UNL1        0.1565
     24 C         145.6810  141.8587  163.5849 C.3     1  UNL1        0.0320
     25 C         144.9536  142.5664  164.6894 C.3     1  UNL1        0.0327
     26 C         141.4730  140.9205  167.0188 C.ar    1  UNL1        0.2250
     27 C         140.0922  141.4574  166.7840 C.ar    1  UNL1        0.0593
     28 C         139.8717  142.5430  165.7726 C.ar    1  UNL1        0.0254
     29 C         141.0319  143.0916  164.9962 C.ar    1  UNL1        0.0990
     30 N         140.8113  144.1772  163.9848 N.ar    1  UNL1       -0.2400
     31 C         141.9715  144.7259  163.2083 C.ar    1  UNL1        0.1281
     32 C         143.3523  144.1889  163.4432 C.ar    1  UNL1        0.1566
     33 F         144.5125  144.7375  162.6667 F       1  UNL1       -0.2028
     34 C         143.5728  143.1033  164.4545 C.ar    1  UNL1        0.0261
     35 C         142.4126  142.5547  165.2310 C.ar    1  UNL1        0.1002
     36 N         142.6332  141.4691  166.2423 N.ar    1  UNL1       -0.2104
     37 O         141.6936  139.8348  168.0302 O.3     1  UNL1       -0.4575
     38 C         142.6444  140.0532  169.1696 C.3     1  UNL1        0.2378
     39 N         140.8601  141.8826  171.7353 N.3     1  UNL1       -0.3181
     40 C         142.0359  142.1717  170.8500 C.3     1  UNL1        0.1121
     41 C         142.9596  143.3382  170.6607 C.3     1  UNL1        0.1602
     42 O         143.6987  142.5804  169.5979 O.3     1  UNL1       -0.3495
     43 C         142.7750  141.4139  169.7872 C.3     1  UNL1        0.1753
     44 H         140.6772  142.6895  172.3320 H       1  UNL1        0.1190
     45 H         141.0637  141.0693  172.3162 H       1  UNL1        0.1190
@<TRIPOS>BOND
     1    40    39    1
     2    40    41    1
     3    41    42    1
     4    42    43    1
     5    43    38    1
     6    38    37    1
     7    37    26    1
     8    26    27   ar
     9    27    28   ar
    10    28    29   ar
    11    29    30   ar
    12    30    31   ar
    13    31    32   ar
    14    32    33    1
    15    32    34   ar
    16    34    25    1
    17    25    24    1
    18    24     1    1
    19     1     2    1
    20     2     3    1
    21     3     4    1
    22     4     9    1
    23     9    11    1
    24    11    12    1
    25    12    13   ar
    26    13    14   ar
    27    14    15   ar
    28    15    16   ar
    29    16    17   ar
    30    16    18    1
    31    18    19   am
    32    19    20    2
    33    19    21    1
    34    21    22    1
    35     4     5    1
    36     5     6    1
    37     4     7    1
    38     7     8    1
    39    34    35   ar
    40    35    36   ar
    41    43    40    1
    42    36    26   ar
    43    35    29   ar
    44     6     1    1
    45     8     1    1
    46    17    12   ar
    47    22    15    1
    48    39    44    1
    49    39    45    1
    50     9    10    1
    51    18    23    1
@<TRIPOS>MOLECULE
*****
 45 51 0 0 0
SMALL
GASTEIGER

@<TRIPOS>ATOM
      1 C         144.5011  139.8437  163.5273 C.3     1  UNL1        0.0932
      2 C         144.1867  139.7218  162.0658 C.3     1  UNL1        0.0286
      3 C         143.0467  138.8582  161.6133 C.3     1  UNL1        0.0193
      4 C         142.2210  138.1167  162.6225 C.3     1  UNL1        0.0700
      5 C         142.5355  138.2387  164.0842 C.3     1  UNL1        0.0193
      6 C         143.6755  139.1022  164.5365 C.3     1  UNL1        0.0286
      7 C         142.8357  138.5778  162.9184 C.3     1  UNL1        0.1562
      8 O         143.8666  139.3586  163.3275 O.3     1  UNL1       -0.3572
      9 N         141.0810  137.2532  162.1701 N.3     1  UNL1       -0.2926
     10 H         140.8470  136.6412  162.9519 H       1  UNL1        0.1236
     11 C         139.7983  137.8829  161.7140 C.3     1  UNL1        0.1152
     12 C         139.2530  139.0804  162.4343 C.ar    1  UNL1        0.0765
     13 C         138.6007  138.9163  163.7750 C.ar    1  UNL1        0.0193
     14 C         138.0554  140.1137  164.4953 C.ar    1  UNL1        0.0411
     15 C         138.1624  141.4752  163.8748 C.ar    1  UNL1        0.1708
     16 C         138.8147  141.6392  162.5340 C.ar    1  UNL1        0.1682
     17 N         139.3600  140.4418  161.8138 N.ar    1  UNL1       -0.2304
     18 N         138.9216  143.0007  161.9136 N.am    1  UNL1       -0.2639
     19 C         138.3763  144.1981  162.6338 C.2     1  UNL1        0.2718
     20 O         138.4833  145.5596  162.0133 O.2     1  UNL1       -0.2707
     21 C         137.7240  144.0341  163.9746 C.3     1  UNL1        0.2898
     22 O         137.6170  142.6727  164.5951 O.3     1  UNL1       -0.4628
     23 H         139.3497  143.1083  161.0336 H       1  UNL1        0.1565
     24 C         145.6412  140.7072  163.9798 C.3     1  UNL1        0.0320
     25 C         145.4029  142.1504  164.3122 C.3     1  UNL1        0.0327
     26 C         142.3375  141.9839  167.6025 C.ar    1  UNL1        0.2250
     27 C         140.9802  142.5873  167.3942 C.ar    1  UNL1        0.0593
     28 C         140.6446  143.2462  166.0892 C.ar    1  UNL1        0.0254
     29 C         141.6664  143.3017  164.9924 C.ar    1  UNL1        0.0990
     30 N         141.3308  143.9607  163.6873 N.ar    1  UNL1       -0.2400
     31 C         142.3526  144.0162  162.5906 C.ar    1  UNL1        0.1281
     32 C         143.7100  143.4128  162.7989 C.ar    1  UNL1        0.1566
     33 F         144.7318  143.4683  161.7022 F       1  UNL1       -0.2028
     34 C         144.0456  142.7538  164.1039 C.ar    1  UNL1        0.0261
     35 C         143.0238  142.6983  165.2007 C.ar    1  UNL1        0.1002
     36 N         143.3593  142.0394  166.5057 N.ar    1  UNL1       -0.2104
     37 O         142.6732  141.3249  168.9076 O.3     1  UNL1       -0.4575
     38 C         141.9505  140.0790  169.3263 C.3     1  UNL1        0.2378
     39 N         138.8026  139.4019  167.6692 N.3     1  UNL1       -0.3181
     40 C         139.2020  139.8672  169.0380 C.3     1  UNL1        0.1121
     41 C         138.4630  140.2449  170.2875 C.3     1  UNL1        0.1602
     42 O         139.7669  140.5253  170.9739 O.3     1  UNL1       -0.3495
     43 C         140.5059  140.1477  169.7245 C.3     1  UNL1        0.1753
     44 H         137.7860  139.3405  167.6141 H       1  UNL1        0.1190
     45 H         139.2089  138.4836  167.4902 H       1  UNL1        0.1190
@<TRIPOS>BOND
     1    40    39    1
     2    40    41    1
     3    41    42    1
     4    42    43    1
     5    43    38    1
     6    38    37    1
     7    37    26    1
     8    26    27   ar
     9    27    28   ar
    10    28    29   ar
    11    29    30   ar
    12    30    31   ar
    13    31    32   ar
    14    32    33    1
    15    32    34   ar
    16    34    25    1
    17    25    24    1
    18    24     1    1
    19     1     2    1
    20     2     3    1
    21     3     4    1
    22     4     9    1
    23     9    11    1
    24    11    12    1
    25    12    13   ar
    26    13    14   ar
    27    14    15   ar
    28    15    16   ar
    29    16    17   ar
    30    16    18    1
    31    18    19   am
    32    19    20    2
    33    19    21    1
    34    21    22    1
    35     4     5    1
    36     5     6    1
    37     4     7    1
    38     7     8    1
    39    34    35   ar
    40    35    36   ar
    41    43    40    1
    42    36    26   ar
    43    35    29   ar
    44     6     1    1
    45     8     1    1
    46    17    12   ar
    47    22    15    1
    48    39    44    1
    49    39    45    1
    50     9    10    1
    51    18    23    1
@<TRIPOS>MOLECULE
*****
 45 51 0 0 0
SMALL
GASTEIGER

@<TRIPOS>ATOM
      1 C         137.8114  142.6882  163.5058 C.3     1  UNL1        0.0932
      2 C         137.7818  142.4837  162.0201 C.3     1  UNL1        0.0286
      3 C         137.8784  141.0989  161.4515 C.3     1  UNL1        0.0193
      4 C         138.0045  139.9187  162.3687 C.3     1  UNL1        0.0700
      5 C         138.0341  140.1232  163.8544 C.3     1  UNL1        0.0193
      6 C         137.9375  141.5079  164.4229 C.3     1  UNL1        0.0286
      7 C         137.9546  140.6584  162.7269 C.3     1  UNL1        0.1562
      8 O         137.8673  141.9105  163.2409 O.3     1  UNL1       -0.3572
      9 N         138.1011  138.5340  161.8002 N.3     1  UNL1       -0.2926
     10 H         137.3521  138.4447  161.1136 H       1  UNL1        0.1236
     11 C         139.3634  138.0871  161.1245 C.3     1  UNL1        0.1152
     12 C         140.6909  138.3283  161.7800 C.ar    1  UNL1        0.0765
     13 C         141.8554  138.8041  160.9629 C.ar    1  UNL1        0.0193
     14 C         143.1829  139.0453  161.6183 C.ar    1  UNL1        0.0411
     15 C         143.3458  138.8109  163.0909 C.ar    1  UNL1        0.1708
     16 C         142.1813  138.3351  163.9080 C.ar    1  UNL1        0.1682
     17 N         140.8539  138.0938  163.2525 N.ar    1  UNL1       -0.2304
     18 N         142.3443  138.1006  165.3806 N.am    1  UNL1       -0.2639
     19 C         143.6718  138.3419  166.0360 C.2     1  UNL1        0.2718
     20 O         143.8348  138.1074  167.5086 O.2     1  UNL1       -0.2707
     21 C         144.8363  138.8176  165.2189 C.3     1  UNL1        0.2898
     22 O         144.6733  139.0521  163.7464 O.3     1  UNL1       -0.4628
     23 H         141.5801  137.7884  165.9169 H       1  UNL1        0.1565
     24 C         137.7148  144.0729  164.0744 C.3     1  UNL1        0.0320
     25 C         138.9626  144.8314  164.4177 C.3     1  UNL1        0.0327
     26 C         142.3693  142.2175  165.7638 C.ar    1  UNL1        0.2250
     27 C         143.5918  142.0779  164.9060 C.ar    1  UNL1        0.0593
     28 C         143.6787  142.8096  163.5994 C.ar    1  UNL1        0.0254
     29 C         142.5432  143.6809  163.1507 C.ar    1  UNL1        0.0990
     30 N         142.6302  144.4126  161.8442 N.ar    1  UNL1       -0.2400
     31 C         141.4946  145.2839  161.3955 C.ar    1  UNL1        0.1281
     32 C         140.2720  145.4235  162.2534 C.ar    1  UNL1        0.1566
     33 F         139.1365  146.2947  161.8047 F       1  UNL1       -0.2028
     34 C         140.1851  144.6918  163.5599 C.ar    1  UNL1        0.0261
     35 C         141.3206  143.8205  164.0086 C.ar    1  UNL1        0.1002
     36 N         141.2337  143.0888  165.3151 N.ar    1  UNL1       -0.2104
     37 O         142.2823  141.4858  167.0704 O.3     1  UNL1       -0.4575
     38 C         141.0821  140.6403  167.3780 C.3     1  UNL1        0.2378
     39 N         143.0890  139.6214  170.2149 N.3     1  UNL1       -0.3181
     40 C         141.6223  139.8160  169.9686 C.3     1  UNL1        0.1121
     41 C         140.3793  139.6691  170.7952 C.3     1  UNL1        0.1602
     42 O         139.5480  140.0912  169.6201 O.3     1  UNL1       -0.3495
     43 C         140.7909  140.2380  168.7935 C.3     1  UNL1        0.1753
     44 H         143.2349  139.3194  171.1782 H       1  UNL1        0.1190
     45 H         143.5801  140.5013  170.0564 H       1  UNL1        0.1190
@<TRIPOS>BOND
     1    40    39    1
     2    40    41    1
     3    41    42    1
     4    42    43    1
     5    43    38    1
     6    38    37    1
     7    37    26    1
     8    26    27   ar
     9    27    28   ar
    10    28    29   ar
    11    29    30   ar
    12    30    31   ar
    13    31    32   ar
    14    32    33    1
    15    32    34   ar
    16    34    25    1
    17    25    24    1
    18    24     1    1
    19     1     2    1
    20     2     3    1
    21     3     4    1
    22     4     9    1
    23     9    11    1
    24    11    12    1
    25    12    13   ar
    26    13    14   ar
    27    14    15   ar
    28    15    16   ar
    29    16    17   ar
    30    16    18    1
    31    18    19   am
    32    19    20    2
    33    19    21    1
    34    21    22    1
    35     4     5    1
    36     5     6    1
    37     4     7    1
    38     7     8    1
    39    34    35   ar
    40    35    36   ar
    41    43    40    1
    42    36    26   ar
    43    35    29   ar
    44     6     1    1
    45     8     1    1
    46    17    12   ar
    47    22    15    1
    48    39    44    1
    49    39    45    1
    50     9    10    1
    51    18    23    1
