@<TRIPOS>MOLECULE
*****
 28 30 0 0 0
SMALL
GASTEIGER

@<TRIPOS>ATOM
      1 C         142.5932  142.2722  164.1854 C.ar    1  UNL1        0.0858
      2 C         143.2576  141.4625  163.1117 C.ar    1  UNL1        0.0399
      3 C         143.3262  141.9895  161.7090 C.ar    1  UNL1        0.1032
      4 N         143.9906  141.1798  160.6352 N.ar    1  UNL1       -0.2405
      5 C         144.0592  141.7069  159.2326 C.ar    1  UNL1        0.1195
      6 C         143.4635  143.0436  158.9037 C.ar    1  UNL1        0.1196
      7 N         142.7991  143.8533  159.9774 N.ar    1  UNL1       -0.2379
      8 C         142.7305  143.3262  161.3800 C.ar    1  UNL1        0.1302
      9 C         142.0661  144.1360  162.4539 C.ar    1  UNL1        0.1477
     10 N         141.9975  143.6089  163.8565 N.ar    1  UNL1       -0.2292
     11 C         142.3872  140.6910  168.3934 C.ar    1  UNL1        0.1318
     12 C         143.1047  141.9774  168.1099 C.ar    1  UNL1        0.0344
     13 C         143.1733  142.5045  166.7072 C.ar    1  UNL1        0.0059
     14 C         142.5246  141.7451  165.5882 C.ar    1  UNL1        0.0370
     15 C         141.8071  140.4587  165.8717 C.ar    1  UNL1        0.1018
     16 N         141.7385  139.9317  167.2744 N.ar    1  UNL1       -0.2291
     17 C         141.9420  141.0789  170.9236 C.3     1  UNL1        0.1136
     18 N         142.3186  140.1640  169.7962 N.pl3   1  UNL1       -0.2897
     19 C         142.6265  138.7220  170.0715 C.3     1  UNL1        0.1136
     20 N         141.4703  145.4727  162.1250 N.pl3   1  UNL1       -0.3169
     21 H         142.0175  146.1594  161.6796 H       1  UNL1        0.1482
     22 C         140.0409  145.7633  162.4746 C.3     1  UNL1        0.0883
     23 C         139.0069  144.6824  162.3631 C.3     1  UNL1        0.0226
     24 C         138.1752  144.3142  163.5560 C.3     1  UNL1        0.0186
     25 C         138.6317  144.6919  164.9340 C.3     1  UNL1        0.0652
     26 N         139.5676  143.7934  165.6867 N.3     1  UNL1       -0.3211
     27 H         139.0975  142.9132  165.8979 H       1  UNL1        0.1189
     28 H         139.8480  144.2464  166.5565 H       1  UNL1        0.1189
@<TRIPOS>BOND
     1    17    18    1
     2    18    19    1
     3    18    11    1
     4    11    12   ar
     5    12    13   ar
     6    13    14   ar
     7    14     1    1
     8     1     2   ar
     9     2     3   ar
    10     3     4   ar
    11     4     5   ar
    12     5     6   ar
    13     6     7   ar
    14     7     8   ar
    15     8     9   ar
    16     9    20    1
    17    20    22    1
    18    22    23    1
    19    23    24    1
    20    24    25    1
    21    25    26    1
    22     9    10   ar
    23    14    15   ar
    24    15    16   ar
    25    16    11   ar
    26    10     1   ar
    27     8     3   ar
    28    20    21    1
    29    26    27    1
    30    26    28    1
@<TRIPOS>MOLECULE
*****
 28 30 0 0 0
SMALL
GASTEIGER

@<TRIPOS>ATOM
      1 C         139.3895  142.0572  164.4773 C.ar    1  UNL1        0.0858
      2 C         139.2359  140.8996  163.5359 C.ar    1  UNL1        0.0399
      3 C         138.8914  141.1440  162.0965 C.ar    1  UNL1        0.1032
      4 N         138.7379  139.9864  161.1551 N.ar    1  UNL1       -0.2405
      5 C         138.3934  140.2308  159.7158 C.ar    1  UNL1        0.1195
      6 C         138.2025  141.6329  159.2180 C.ar    1  UNL1        0.1196
      7 N         138.3561  142.7905  160.1594 N.ar    1  UNL1       -0.2379
      8 C         138.7005  142.5460  161.5987 C.ar    1  UNL1        0.1302
      9 C         138.8541  143.7036  162.5402 C.ar    1  UNL1        0.1477
     10 N         139.1986  143.4592  163.9795 N.ar    1  UNL1       -0.2292
     11 C         140.4229  141.3239  168.7952 C.ar    1  UNL1        0.1318
     12 C         140.6582  142.6745  168.1866 C.ar    1  UNL1        0.0344
     13 C         140.3138  142.9190  166.7474 C.ar    1  UNL1        0.0059
     14 C         139.7340  141.8128  165.9167 C.ar    1  UNL1        0.0370
     15 C         139.4986  140.4621  166.5253 C.ar    1  UNL1        0.1018
     16 N         139.8430  140.2177  167.9645 N.ar    1  UNL1       -0.2291
     17 C         140.1511  139.9250  170.9677 C.3     1  UNL1        0.1136
     18 N         140.7673  141.0795  170.2346 N.pl3   1  UNL1       -0.2897
     19 C         141.7281  141.9896  170.9408 C.3     1  UNL1        0.1136
     20 N         138.6632  145.1057  162.0424 N.pl3   1  UNL1       -0.3169
     21 H         137.7570  145.4840  161.9723 H       1  UNL1        0.1482
     22 C         139.8529  145.9312  161.6514 C.3     1  UNL1        0.0883
     23 C         140.6632  145.5555  160.4463 C.3     1  UNL1        0.0226
     24 C         141.7047  144.4807  160.5482 C.3     1  UNL1        0.0186
     25 C         142.3598  144.1938  161.8667 C.3     1  UNL1        0.0652
     26 N         143.3305  145.1766  162.4515 N.3     1  UNL1       -0.3211
     27 H         144.1582  145.2311  161.8579 H       1  UNL1        0.1189
     28 H         143.6019  144.8713  163.3861 H       1  UNL1        0.1189
@<TRIPOS>BOND
     1    17    18    1
     2    18    19    1
     3    18    11    1
     4    11    12   ar
     5    12    13   ar
     6    13    14   ar
     7    14     1    1
     8     1     2   ar
     9     2     3   ar
    10     3     4   ar
    11     4     5   ar
    12     5     6   ar
    13     6     7   ar
    14     7     8   ar
    15     8     9   ar
    16     9    20    1
    17    20    22    1
    18    22    23    1
    19    23    24    1
    20    24    25    1
    21    25    26    1
    22     9    10   ar
    23    14    15   ar
    24    15    16   ar
    25    16    11   ar
    26    10     1   ar
    27     8     3   ar
    28    20    21    1
    29    26    27    1
    30    26    28    1
@<TRIPOS>MOLECULE
*****
 28 30 0 0 0
SMALL
GASTEIGER

@<TRIPOS>ATOM
      1 C         142.5704  143.0107  160.3881 C.ar    1  UNL1        0.0858
      2 C         141.0726  142.9594  160.4495 C.ar    1  UNL1        0.0399
      3 C         140.3468  143.5947  161.5984 C.ar    1  UNL1        0.1032
      4 N         138.8490  143.5433  161.6599 N.ar    1  UNL1       -0.2405
      5 C         138.1233  144.1786  162.8087 C.ar    1  UNL1        0.1195
      6 C         138.8955  144.8652  163.8960 C.ar    1  UNL1        0.1196
      7 N         140.3933  144.9165  163.8346 N.ar    1  UNL1       -0.2379
      8 C         141.1190  144.2813  162.6857 C.ar    1  UNL1        0.1302
      9 C         142.6169  144.3326  162.6242 C.ar    1  UNL1        0.1477
     10 N         143.3426  143.6974  161.4754 N.ar    1  UNL1       -0.2292
     11 C         144.7476  141.1049  156.9417 C.ar    1  UNL1        0.1318
     12 C         144.3114  142.5374  156.8533 C.ar    1  UNL1        0.0344
     13 C         143.5857  143.1726  158.0021 C.ar    1  UNL1        0.0059
     14 C         143.2961  142.3755  159.2392 C.ar    1  UNL1        0.0370
     15 C         143.7323  140.9430  159.3276 C.ar    1  UNL1        0.1018
     16 N         144.4580  140.3077  158.1788 N.ar    1  UNL1       -0.2291
     17 C         145.0094  139.1506  155.2499 C.3     1  UNL1        0.1136
     18 N         145.4733  140.4696  155.7928 N.pl3   1  UNL1       -0.2897
     19 C         146.6630  141.1534  155.1870 C.3     1  UNL1        0.1136
     20 N         143.3891  145.0192  163.7116 N.pl3   1  UNL1       -0.3169
     21 H         143.3638  146.0004  163.7890 H       1  UNL1        0.1482
     22 C         144.1997  144.2110  164.6809 C.3     1  UNL1        0.0883
     23 C         143.7300  142.8491  165.0988 C.3     1  UNL1        0.0226
     24 C         144.3332  141.6244  164.4772 C.3     1  UNL1        0.0186
     25 C         145.6720  141.7059  163.8057 C.3     1  UNL1        0.0652
     26 N         145.7574  141.9900  162.3353 N.3     1  UNL1       -0.3211
     27 H         145.3524  141.2120  161.8146 H       1  UNL1        0.1189
     28 H         146.7348  142.1060  162.0677 H       1  UNL1        0.1189
@<TRIPOS>BOND
     1    17    18    1
     2    18    19    1
     3    18    11    1
     4    11    12   ar
     5    12    13   ar
     6    13    14   ar
     7    14     1    1
     8     1     2   ar
     9     2     3   ar
    10     3     4   ar
    11     4     5   ar
    12     5     6   ar
    13     6     7   ar
    14     7     8   ar
    15     8     9   ar
    16     9    20    1
    17    20    22    1
    18    22    23    1
    19    23    24    1
    20    24    25    1
    21    25    26    1
    22     9    10   ar
    23    14    15   ar
    24    15    16   ar
    25    16    11   ar
    26    10     1   ar
    27     8     3   ar
    28    20    21    1
    29    26    27    1
    30    26    28    1
@<TRIPOS>MOLECULE
*****
 28 30 0 0 0
SMALL
GASTEIGER

@<TRIPOS>ATOM
      1 C         141.1942  139.4703  165.0356 C.ar    1  UNL1        0.0858
      2 C         142.4989  139.5220  164.2973 C.ar    1  UNL1        0.0399
      3 C         142.6177  138.8957  162.9394 C.ar    1  UNL1        0.1032
      4 N         143.9224  138.9474  162.2012 N.ar    1  UNL1       -0.2405
      5 C         144.0411  138.3211  160.8434 C.ar    1  UNL1        0.1195
      6 C         142.8551  137.6432  160.2239 C.ar    1  UNL1        0.1196
      7 N         141.5504  137.5916  160.9621 N.ar    1  UNL1       -0.2379
      8 C         141.4317  138.2178  162.3199 C.ar    1  UNL1        0.1302
      9 C         140.1269  138.1662  163.0582 C.ar    1  UNL1        0.1477
     10 N         140.0082  138.7924  164.4160 N.ar    1  UNL1       -0.2292
     11 C         140.8378  141.3490  169.1091 C.ar    1  UNL1        0.1318
     12 C         142.0741  141.5671  168.2881 C.ar    1  UNL1        0.0344
     13 C         142.1929  140.9409  166.9303 C.ar    1  UNL1        0.0059
     14 C         141.0754  140.0966  166.3934 C.ar    1  UNL1        0.0370
     15 C         139.8391  139.8785  167.2144 C.ar    1  UNL1        0.1018
     16 N         139.7203  140.5047  168.5722 N.ar    1  UNL1       -0.2291
     17 C         141.6149  141.5238  171.5820 C.3     1  UNL1        0.1136
     18 N         140.7190  141.9753  170.4669 N.pl3   1  UNL1       -0.2897
     19 C         139.7044  143.0530  170.7096 C.3     1  UNL1        0.1136
     20 N         138.9409  137.4882  162.4386 N.pl3   1  UNL1       -0.3169
     21 H         138.8653  136.5070  162.4653 H       1  UNL1        0.1482
     22 C         137.8702  138.3053  161.7784 C.3     1  UNL1        0.0883
     23 C         138.2371  139.3247  160.7410 C.3     1  UNL1        0.0226
     24 C         138.1439  140.7873  161.0608 C.3     1  UNL1        0.0186
     25 C         138.0355  141.2376  162.4876 C.3     1  UNL1        0.0652
     26 N         136.6867  141.3864  163.1266 N.3     1  UNL1       -0.3211
     27 H         136.1756  142.1418  162.6699 H       1  UNL1        0.1189
     28 H         136.8016  141.6036  164.1166 H       1  UNL1        0.1189
@<TRIPOS>BOND
     1    17    18    1
     2    18    19    1
     3    18    11    1
     4    11    12   ar
     5    12    13   ar
     6    13    14   ar
     7    14     1    1
     8     1     2   ar
     9     2     3   ar
    10     3     4   ar
    11     4     5   ar
    12     5     6   ar
    13     6     7   ar
    14     7     8   ar
    15     8     9   ar
    16     9    20    1
    17    20    22    1
    18    22    23    1
    19    23    24    1
    20    24    25    1
    21    25    26    1
    22     9    10   ar
    23    14    15   ar
    24    15    16   ar
    25    16    11   ar
    26    10     1   ar
    27     8     3   ar
    28    20    21    1
    29    26    27    1
    30    26    28    1
@<TRIPOS>MOLECULE
*****
 28 30 0 0 0
SMALL
GASTEIGER

@<TRIPOS>ATOM
      1 C         140.7443  142.9020  164.0290 C.ar    1  UNL1        0.0858
      2 C         141.4620  143.8245  163.0888 C.ar    1  UNL1        0.0399
      3 C         140.9644  144.0001  161.6846 C.ar    1  UNL1        0.1032
      4 N         141.6821  144.9226  160.7445 N.ar    1  UNL1       -0.2405
      5 C         141.1846  145.0981  159.3404 C.ar    1  UNL1        0.1195
      6 C         139.9694  144.3511  158.8764 C.ar    1  UNL1        0.1196
      7 N         139.2517  143.4286  159.8165 N.ar    1  UNL1       -0.2379
      8 C         139.7492  143.2531  161.2206 C.ar    1  UNL1        0.1302
      9 C         139.0316  142.3305  162.1609 C.ar    1  UNL1        0.1477
     10 N         139.5291  142.1550  163.5650 N.ar    1  UNL1       -0.2292
     11 C         142.2369  142.3754  168.2414 C.ar    1  UNL1        0.1318
     12 C         140.7746  142.5896  167.9852 C.ar    1  UNL1        0.0344
     13 C         140.2770  142.7652  166.5810 C.ar    1  UNL1        0.0059
     14 C         141.2418  142.7265  165.4332 C.ar    1  UNL1        0.0370
     15 C         142.7042  142.5123  165.6895 C.ar    1  UNL1        0.1018
     16 N         143.2017  142.3368  167.0936 N.ar    1  UNL1       -0.2291
     17 C         141.7945  141.7470  170.7232 C.3     1  UNL1        0.1136
     18 N         142.7344  142.1999  169.6456 N.pl3   1  UNL1       -0.2897
     19 C         144.1719  142.4773  169.9722 C.3     1  UNL1        0.1136
     20 N         137.8164  141.5835  161.6969 N.pl3   1  UNL1       -0.3169
     21 H         136.9228  141.9828  161.8030 H       1  UNL1        0.1482
     22 C         137.9627  140.2282  161.0712 C.3     1  UNL1        0.0883
     23 C         137.8745  138.9959  161.9219 C.3     1  UNL1        0.0226
     24 C         139.0617  138.5517  162.7239 C.3     1  UNL1        0.0186
     25 C         140.2511  137.9523  162.0339 C.3     1  UNL1        0.0652
     26 N         141.1315  136.9818  162.7640 N.3     1  UNL1       -0.3211
     27 H         141.6028  137.4611  163.5312 H       1  UNL1        0.1189
     28 H         141.8270  136.6035  162.1210 H       1  UNL1        0.1189
@<TRIPOS>BOND
     1    17    18    1
     2    18    19    1
     3    18    11    1
     4    11    12   ar
     5    12    13   ar
     6    13    14   ar
     7    14     1    1
     8     1     2   ar
     9     2     3   ar
    10     3     4   ar
    11     4     5   ar
    12     5     6   ar
    13     6     7   ar
    14     7     8   ar
    15     8     9   ar
    16     9    20    1
    17    20    22    1
    18    22    23    1
    19    23    24    1
    20    24    25    1
    21    25    26    1
    22     9    10   ar
    23    14    15   ar
    24    15    16   ar
    25    16    11   ar
    26    10     1   ar
    27     8     3   ar
    28    20    21    1
    29    26    27    1
    30    26    28    1
@<TRIPOS>MOLECULE
*****
 28 30 0 0 0
SMALL
GASTEIGER

@<TRIPOS>ATOM
      1 C         140.3339  139.9913  164.6470 C.ar    1  UNL1        0.0858
      2 C         139.2661  140.4988  163.7238 C.ar    1  UNL1        0.0399
      3 C         139.2241  140.0340  162.2982 C.ar    1  UNL1        0.1032
      4 N         138.1564  140.5415  161.3750 N.ar    1  UNL1       -0.2405
      5 C         138.1145  140.0767  159.9495 C.ar    1  UNL1        0.1195
      6 C         139.1404  139.1045  159.4471 C.ar    1  UNL1        0.1196
      7 N         140.2081  138.5970  160.3703 N.ar    1  UNL1       -0.2379
      8 C         140.2500  139.0618  161.7958 C.ar    1  UNL1        0.1302
      9 C         141.3178  138.5543  162.7191 C.ar    1  UNL1        0.1477
     10 N         141.3597  139.0191  164.1446 N.ar    1  UNL1       -0.2292
     11 C         140.4596  141.3854  168.9237 C.ar    1  UNL1        0.1318
     12 C         141.3462  142.0285  167.8989 C.ar    1  UNL1        0.0344
     13 C         141.3043  141.5638  166.4733 C.ar    1  UNL1        0.0059
     14 C         140.3758  140.4560  166.0726 C.ar    1  UNL1        0.0370
     15 C         139.4892  139.8130  167.0975 C.ar    1  UNL1        0.1018
     16 N         139.5311  140.2777  168.5230 N.ar    1  UNL1       -0.2291
     17 C         141.3791  141.1469  171.3419 C.3     1  UNL1        0.1136
     18 N         140.5015  141.8502  170.3493 N.pl3   1  UNL1       -0.2897
     19 C         139.6659  143.0182  170.7823 C.3     1  UNL1        0.1136
     20 N         142.3437  137.5821  162.2167 N.pl3   1  UNL1       -0.3169
     21 H         142.1176  136.6276  162.1324 H       1  UNL1        0.1482
     22 C         143.7141  138.0641  161.8429 C.3     1  UNL1        0.0883
     23 C         144.1584  139.4412  162.2379 C.3     1  UNL1        0.0226
     24 C         144.8403  139.6600  163.5560 C.3     1  UNL1        0.0186
     25 C         145.2340  141.0452  163.9758 C.3     1  UNL1        0.0652
     26 N         146.2745  141.7969  163.1998 N.3     1  UNL1       -0.3211
     27 H         147.1749  141.3273  163.2950 H       1  UNL1        0.1189
     28 H         146.3471  142.7480  163.5612 H       1  UNL1        0.1189
@<TRIPOS>BOND
     1    17    18    1
     2    18    19    1
     3    18    11    1
     4    11    12   ar
     5    12    13   ar
     6    13    14   ar
     7    14     1    1
     8     1     2   ar
     9     2     3   ar
    10     3     4   ar
    11     4     5   ar
    12     5     6   ar
    13     6     7   ar
    14     7     8   ar
    15     8     9   ar
    16     9    20    1
    17    20    22    1
    18    22    23    1
    19    23    24    1
    20    24    25    1
    21    25    26    1
    22     9    10   ar
    23    14    15   ar
    24    15    16   ar
    25    16    11   ar
    26    10     1   ar
    27     8     3   ar
    28    20    21    1
    29    26    27    1
    30    26    28    1
@<TRIPOS>MOLECULE
*****
 28 30 0 0 0
SMALL
GASTEIGER

@<TRIPOS>ATOM
      1 C         141.5576  143.8168  160.5727 C.ar    1  UNL1        0.0858
      2 C         142.9510  143.2613  160.5759 C.ar    1  UNL1        0.0399
      3 C         143.5727  142.8029  161.8618 C.ar    1  UNL1        0.1032
      4 N         144.9661  142.2475  161.8649 N.ar    1  UNL1       -0.2405
      5 C         145.5878  141.7891  163.1508 C.ar    1  UNL1        0.1195
      6 C         144.8161  141.8862  164.4334 C.ar    1  UNL1        0.1196
      7 N         143.4228  142.4417  164.4302 N.ar    1  UNL1       -0.2379
      8 C         142.8011  142.9000  163.1444 C.ar    1  UNL1        0.1302
      9 C         141.4077  143.4555  163.1412 C.ar    1  UNL1        0.1477
     10 N         140.7860  143.9139  161.8554 N.ar    1  UNL1       -0.2292
     11 C         139.6924  145.1920  156.7153 C.ar    1  UNL1        0.1318
     12 C         139.3063  143.8679  157.3049 C.ar    1  UNL1        0.0344
     13 C         139.9280  143.4095  158.5907 C.ar    1  UNL1        0.0059
     14 C         140.9359  144.2751  159.2869 C.ar    1  UNL1        0.0370
     15 C         141.3220  145.5993  158.6973 C.ar    1  UNL1        0.1018
     16 N         140.7003  146.0577  157.4115 N.ar    1  UNL1       -0.2291
     17 C         139.7427  146.7097  154.6072 C.3     1  UNL1        0.1136
     18 N         139.0707  145.6503  155.4295 N.pl3   1  UNL1       -0.2897
     19 C         137.7769  145.0493  154.9659 C.3     1  UNL1        0.1136
     20 N         140.6361  143.5526  164.4238 N.pl3   1  UNL1       -0.3169
     21 H         140.8247  142.9271  165.1603 H       1  UNL1        0.1482
     22 C         139.5770  144.6026  164.5843 C.3     1  UNL1        0.0883
     23 C         138.1276  144.2214  164.5236 C.3     1  UNL1        0.0226
     24 C         137.7370  142.7982  164.2554 C.3     1  UNL1        0.0186
     25 C         137.6067  142.3096  162.8432 C.3     1  UNL1        0.0652
     26 N         137.6808  143.2819  161.7034 N.3     1  UNL1       -0.3211
     27 H         136.8791  143.9114  161.7408 H       1  UNL1        0.1189
     28 H         137.6715  142.7717  160.8202 H       1  UNL1        0.1189
@<TRIPOS>BOND
     1    17    18    1
     2    18    19    1
     3    18    11    1
     4    11    12   ar
     5    12    13   ar
     6    13    14   ar
     7    14     1    1
     8     1     2   ar
     9     2     3   ar
    10     3     4   ar
    11     4     5   ar
    12     5     6   ar
    13     6     7   ar
    14     7     8   ar
    15     8     9   ar
    16     9    20    1
    17    20    22    1
    18    22    23    1
    19    23    24    1
    20    24    25    1
    21    25    26    1
    22     9    10   ar
    23    14    15   ar
    24    15    16   ar
    25    16    11   ar
    26    10     1   ar
    27     8     3   ar
    28    20    21    1
    29    26    27    1
    30    26    28    1
@<TRIPOS>MOLECULE
*****
 28 30 0 0 0
SMALL
GASTEIGER

@<TRIPOS>ATOM
      1 C         139.1098  142.7775  159.4189 C.ar    1  UNL1        0.0858
      2 C         139.3877  141.3098  159.2835 C.ar    1  UNL1        0.0399
      3 C         139.0696  140.3786  160.4157 C.ar    1  UNL1        0.1032
      4 N         139.3476  138.9108  160.2802 N.ar    1  UNL1       -0.2405
      5 C         139.0295  137.9797  161.4124 C.ar    1  UNL1        0.1195
      6 C         138.4335  138.5164  162.6800 C.ar    1  UNL1        0.1196
      7 N         138.1556  139.9842  162.8154 N.ar    1  UNL1       -0.2379
      8 C         138.4736  140.9153  161.6833 C.ar    1  UNL1        0.1302
      9 C         138.1957  142.3831  161.8187 C.ar    1  UNL1        0.1477
     10 N         138.5138  143.3142  160.6865 N.ar    1  UNL1       -0.2292
     11 C         140.0639  145.5709  156.0224 C.ar    1  UNL1        0.1318
     12 C         140.5309  145.8919  157.4112 C.ar    1  UNL1        0.0344
     13 C         140.2129  144.9608  158.5434 C.ar    1  UNL1        0.0059
     14 C         139.4278  143.7087  158.2867 C.ar    1  UNL1        0.0370
     15 C         138.9608  143.3878  156.8979 C.ar    1  UNL1        0.1018
     16 N         139.2788  144.3189  155.7657 N.ar    1  UNL1       -0.2291
     17 C         139.7405  147.8567  154.8304 C.3     1  UNL1        0.1136
     18 N         140.3819  146.5021  154.8901 N.pl3   1  UNL1       -0.2897
     19 C         141.3414  146.0786  153.8177 C.3     1  UNL1        0.1136
     20 N         137.5997  142.9198  163.0862 N.pl3   1  UNL1       -0.3169
     21 H         137.0785  142.3270  163.6746 H       1  UNL1        0.1482
     22 C         137.7979  144.3595  163.4574 C.3     1  UNL1        0.0883
     23 C         138.8992  144.7465  164.3994 C.3     1  UNL1        0.0226
     24 C         140.3316  144.6028  163.9781 C.3     1  UNL1        0.0186
     25 C         140.8109  145.2550  162.7151 C.3     1  UNL1        0.0652
     26 N         140.2353  146.5720  162.2860 N.3     1  UNL1       -0.3211
     27 H         139.2496  146.4524  162.0528 H       1  UNL1        0.1189
     28 H         140.7394  146.9127  161.4673 H       1  UNL1        0.1189
@<TRIPOS>BOND
     1    17    18    1
     2    18    19    1
     3    18    11    1
     4    11    12   ar
     5    12    13   ar
     6    13    14   ar
     7    14     1    1
     8     1     2   ar
     9     2     3   ar
    10     3     4   ar
    11     4     5   ar
    12     5     6   ar
    13     6     7   ar
    14     7     8   ar
    15     8     9   ar
    16     9    20    1
    17    20    22    1
    18    22    23    1
    19    23    24    1
    20    24    25    1
    21    25    26    1
    22     9    10   ar
    23    14    15   ar
    24    15    16   ar
    25    16    11   ar
    26    10     1   ar
    27     8     3   ar
    28    20    21    1
    29    26    27    1
    30    26    28    1
@<TRIPOS>MOLECULE
*****
 28 30 0 0 0
SMALL
GASTEIGER

@<TRIPOS>ATOM
      1 C         141.5931  144.3330  160.0846 C.ar    1  UNL1        0.0858
      2 C         140.1332  144.3017  160.4275 C.ar    1  UNL1        0.0399
      3 C         139.6982  144.3586  161.8619 C.ar    1  UNL1        0.1032
      4 N         138.2383  144.3273  162.2048 N.ar    1  UNL1       -0.2405
      5 C         137.8034  144.3842  163.6392 C.ar    1  UNL1        0.1195
      6 C         138.8285  144.4724  164.7308 C.ar    1  UNL1        0.1196
      7 N         140.2884  144.5038  164.3879 N.ar    1  UNL1       -0.2379
      8 C         140.7233  144.4469  162.9535 C.ar    1  UNL1        0.1302
      9 C         142.1833  144.4782  162.6106 C.ar    1  UNL1        0.1477
     10 N         142.6182  144.4213  161.1762 N.ar    1  UNL1       -0.2292
     11 C         142.8980  144.1622  155.7813 C.ar    1  UNL1        0.1318
     12 C         142.0747  145.3169  156.2702 C.ar    1  UNL1        0.0344
     13 C         141.6397  145.3738  157.7045 C.ar    1  UNL1        0.0059
     14 C         142.0281  144.2761  158.6501 C.ar    1  UNL1        0.0370
     15 C         142.8514  143.1215  158.1613 C.ar    1  UNL1        0.1018
     16 N         143.2863  143.0645  156.7269 N.ar    1  UNL1       -0.2291
     17 C         143.1524  145.3017  153.4604 C.3     1  UNL1        0.1136
     18 N         143.3329  144.1053  154.3469 N.pl3   1  UNL1       -0.2897
     19 C         143.9485  142.8519  153.7990 C.3     1  UNL1        0.1136
     20 N         143.2083  144.5664  163.7021 N.pl3   1  UNL1       -0.3169
     21 H         143.6697  145.4185  163.8764 H       1  UNL1        0.1482
     22 C         143.5304  143.3565  164.5282 C.3     1  UNL1        0.0883
     23 C         144.9552  142.9164  164.6900 C.3     1  UNL1        0.0226
     24 C         145.4965  141.8019  163.8444 C.3     1  UNL1        0.0186
     25 C         145.1046  141.6978  162.4002 C.3     1  UNL1        0.0652
     26 N         145.2415  142.8884  161.4982 N.3     1  UNL1       -0.3211
     27 H         144.5953  143.6184  161.7982 H       1  UNL1        0.1189
     28 H         145.0247  142.6154  160.5396 H       1  UNL1        0.1189
@<TRIPOS>BOND
     1    17    18    1
     2    18    19    1
     3    18    11    1
     4    11    12   ar
     5    12    13   ar
     6    13    14   ar
     7    14     1    1
     8     1     2   ar
     9     2     3   ar
    10     3     4   ar
    11     4     5   ar
    12     5     6   ar
    13     6     7   ar
    14     7     8   ar
    15     8     9   ar
    16     9    20    1
    17    20    22    1
    18    22    23    1
    19    23    24    1
    20    24    25    1
    21    25    26    1
    22     9    10   ar
    23    14    15   ar
    24    15    16   ar
    25    16    11   ar
    26    10     1   ar
    27     8     3   ar
    28    20    21    1
    29    26    27    1
    30    26    28    1
