@<TRIPOS>MOLECULE
*****
 19 20 0 0 0
SMALL
GASTEIGER

@<TRIPOS>ATOM
      1 C         140.5907  140.4280  167.2444 C.ar    1  UNL1        0.0511
      2 C         141.9097  139.8282  166.8563 C.ar    1  UNL1        0.0163
      3 C         142.7922  139.2160  167.9034 C.ar    1  UNL1        0.0253
      4 C         142.3559  139.2037  169.3384 C.ar    1  UNL1        0.1365
      5 C         141.0370  139.8035  169.7264 C.ar    1  UNL1        0.1541
      6 O         140.6006  139.7912  171.1616 O.3     1  UNL1       -0.5039
      7 C         140.1544  140.4157  168.6794 C.ar    1  UNL1        0.0527
      8 H         141.1519  139.4088  171.8156 H       1  UNL1        0.2923
      9 C         138.7248  140.1867  165.4528 C.3     1  UNL1        0.1122
     10 N         139.7082  141.0402  166.1973 N.pl3   1  UNL1       -0.3040
     11 C         139.8090  142.5059  165.8949 C.3     1  UNL1        0.1122
     12 N         143.2385  138.5915  170.3854 N.2     1  UNL1       -0.1435
     13 N         143.7197  137.1794  170.2287 N.2     1  UNL1       -0.1284
     14 C         144.6023  136.5672  171.2757 C.ar    1  UNL1        0.1838
     15 C         144.5509  135.0897  171.5296 C.ar    1  UNL1        0.0406
     16 C         145.4335  134.4775  172.5766 C.ar    1  UNL1        0.0048
     17 C         146.3674  135.3429  173.3698 C.ar    1  UNL1        0.0208
     18 C         146.4188  136.8203  173.1159 C.ar    1  UNL1        0.1006
     19 N         145.5362  137.4325  172.0689 N.ar    1  UNL1       -0.2236
@<TRIPOS>BOND
     1     9    10    1
     2    10    11    1
     3    10     1    1
     4     1     2   ar
     5     2     3   ar
     6     3     4   ar
     7     4    12    1
     8    12    13    2
     9    13    14    1
    10    14    15   ar
    11    15    16   ar
    12    16    17   ar
    13    17    18   ar
    14    18    19   ar
    15     4     5   ar
    16     5     6    1
    17     5     7   ar
    18     7     1   ar
    19    19    14   ar
    20     6     8    1
@<TRIPOS>MOLECULE
*****
 19 20 0 0 0
SMALL
GASTEIGER

@<TRIPOS>ATOM
      1 C         140.4519  141.8749  167.3844 C.ar    1  UNL1        0.0511
      2 C         139.7990  140.5562  167.0932 C.ar    1  UNL1        0.0163
      3 C         139.1290  139.7913  168.1959 C.ar    1  UNL1        0.0253
      4 C         139.1119  140.3449  169.5898 C.ar    1  UNL1        0.1365
      5 C         139.7648  141.6635  169.8810 C.ar    1  UNL1        0.1541
      6 O         139.7478  142.2173  171.2751 O.3     1  UNL1       -0.5039
      7 C         140.4348  142.4285  168.7783 C.ar    1  UNL1        0.0527
      8 H         139.3293  141.7394  171.9639 H       1  UNL1        0.2923
      9 C         140.3232  143.5802  165.4286 C.3     1  UNL1        0.1122
     10 N         141.1218  142.6399  166.2817 N.pl3   1  UNL1       -0.3040
     11 C         142.5904  142.4645  166.0321 C.3     1  UNL1        0.1122
     12 N         138.4420  139.5799  170.6925 N.2     1  UNL1       -0.1435
     13 N         137.1417  138.8776  170.4355 N.2     1  UNL1       -0.1284
     14 C         136.4718  138.1126  171.5382 C.ar    1  UNL1        0.1838
     15 C         135.2213  138.6483  172.1703 C.ar    1  UNL1        0.0406
     16 C         134.5514  137.8833  173.2730 C.ar    1  UNL1        0.0048
     17 C         135.1318  136.5827  173.7436 C.ar    1  UNL1        0.0208
     18 C         136.3822  136.0471  173.1115 C.ar    1  UNL1        0.1006
     19 N         137.0522  136.8120  172.0088 N.ar    1  UNL1       -0.2236
@<TRIPOS>BOND
     1     9    10    1
     2    10    11    1
     3    10     1    1
     4     1     2   ar
     5     2     3   ar
     6     3     4   ar
     7     4    12    1
     8    12    13    2
     9    13    14    1
    10    14    15   ar
    11    15    16   ar
    12    16    17   ar
    13    17    18   ar
    14    18    19   ar
    15     4     5   ar
    16     5     6    1
    17     5     7   ar
    18     7     1   ar
    19    19    14   ar
    20     6     8    1
@<TRIPOS>MOLECULE
*****
 19 20 0 0 0
SMALL
GASTEIGER

@<TRIPOS>ATOM
      1 C         143.7347  142.9704  160.4888 C.ar    1  UNL1        0.0511
      2 C         142.5200  143.2999  161.3048 C.ar    1  UNL1        0.0163
      3 C         142.5535  143.1442  162.7963 C.ar    1  UNL1        0.0253
      4 C         143.8018  142.6590  163.4719 C.ar    1  UNL1        0.1365
      5 C         145.0165  142.3296  162.6559 C.ar    1  UNL1        0.1541
      6 O         146.2648  141.8444  163.3315 O.3     1  UNL1       -0.5039
      7 C         144.9830  142.4853  161.1644 C.ar    1  UNL1        0.0527
      8 H         146.2858  141.7471  164.2632 H       1  UNL1        0.2923
      9 C         144.7943  142.5358  158.1568 C.3     1  UNL1        0.1122
     10 N         143.7012  143.1261  158.9973 N.pl3   1  UNL1       -0.3040
     11 C         142.5745  143.8722  158.3463 C.3     1  UNL1        0.1122
     12 N         143.8353  142.5033  164.9634 N.2     1  UNL1       -0.1435
     13 N         142.9308  141.5127  165.6346 N.2     1  UNL1       -0.1284
     14 C         142.9643  141.3570  167.1261 C.ar    1  UNL1        0.1838
     15 C         142.4863  140.0833  167.7581 C.ar    1  UNL1        0.0406
     16 C         142.5198  139.9276  169.2497 C.ar    1  UNL1        0.0048
     17 C         143.0314  141.0455  170.1091 C.ar    1  UNL1        0.0208
     18 C         143.5094  142.3191  169.4771 C.ar    1  UNL1        0.1006
     19 N         143.4759  142.4748  167.9856 N.ar    1  UNL1       -0.2236
@<TRIPOS>BOND
     1     9    10    1
     2    10    11    1
     3    10     1    1
     4     1     2   ar
     5     2     3   ar
     6     3     4   ar
     7     4    12    1
     8    12    13    2
     9    13    14    1
    10    14    15   ar
    11    15    16   ar
    12    16    17   ar
    13    17    18   ar
    14    18    19   ar
    15     4     5   ar
    16     5     6    1
    17     5     7   ar
    18     7     1   ar
    19    19    14   ar
    20     6     8    1
@<TRIPOS>MOLECULE
*****
 19 20 0 0 0
SMALL
GASTEIGER

@<TRIPOS>ATOM
      1 C         138.9327  139.8474  160.3477 C.ar    1  UNL1        0.0511
      2 C         140.1018  139.3780  161.1619 C.ar    1  UNL1        0.0163
      3 C         140.0983  139.5561  162.6513 C.ar    1  UNL1        0.0253
      4 C         138.9257  140.2035  163.3265 C.ar    1  UNL1        0.1365
      5 C         137.7567  140.6729  162.5123 C.ar    1  UNL1        0.1541
      6 O         136.5841  141.3204  163.1875 O.3     1  UNL1       -0.5039
      7 C         137.7602  140.4948  161.0229 C.ar    1  UNL1        0.0527
      8 H         136.5819  141.4316  164.1178 H       1  UNL1        0.2923
      9 C         139.7638  138.5849  158.2346 C.3     1  UNL1        0.1122
     10 N         138.9362  139.6693  158.8583 N.pl3   1  UNL1       -0.3040
     11 C         138.1121  140.5756  157.9927 C.3     1  UNL1        0.1122
     12 N         138.9223  140.3816  164.8159 N.2     1  UNL1       -0.1435
     13 N         139.9975  141.1921  165.4768 N.2     1  UNL1       -0.1284
     14 C         139.9941  141.3702  166.9662 C.ar    1  UNL1        0.1838
     15 C         140.5030  142.6454  167.5702 C.ar    1  UNL1        0.0406
     16 C         140.4996  142.8235  169.0596 C.ar    1  UNL1        0.0048
     17 C         139.9871  141.7263  169.9450 C.ar    1  UNL1        0.0208
     18 C         139.4782  140.4512  169.3409 C.ar    1  UNL1        0.1006
     19 N         139.4816  140.2731  167.8515 N.ar    1  UNL1       -0.2236
@<TRIPOS>BOND
     1     9    10    1
     2    10    11    1
     3    10     1    1
     4     1     2   ar
     5     2     3   ar
     6     3     4   ar
     7     4    12    1
     8    12    13    2
     9    13    14    1
    10    14    15   ar
    11    15    16   ar
    12    16    17   ar
    13    17    18   ar
    14    18    19   ar
    15     4     5   ar
    16     5     6    1
    17     5     7   ar
    18     7     1   ar
    19    19    14   ar
    20     6     8    1
@<TRIPOS>MOLECULE
*****
 19 20 0 0 0
SMALL
GASTEIGER

@<TRIPOS>ATOM
      1 C         138.5041  139.4198  164.6638 C.ar    1  UNL1        0.0511
      2 C         138.6627  138.2343  163.7586 C.ar    1  UNL1        0.0163
      3 C         138.3858  138.3693  162.2906 C.ar    1  UNL1        0.0253
      4 C         137.9503  139.6897  161.7278 C.ar    1  UNL1        0.1365
      5 C         137.7918  140.8752  162.6330 C.ar    1  UNL1        0.1541
      6 O         137.3563  142.1957  162.0701 O.3     1  UNL1       -0.5039
      7 C         138.0686  140.7402  164.1010 C.ar    1  UNL1        0.0527
      8 H         137.1833  142.2800  161.1531 H       1  UNL1        0.2923
      9 C         137.8016  138.5733  167.0175 C.3     1  UNL1        0.1122
     10 N         138.7810  139.2849  166.1319 N.pl3   1  UNL1       -0.3040
     11 C         140.0372  139.8615  166.7143 C.3     1  UNL1        0.1122
     12 N         137.6734  139.8246  160.2597 N.2     1  UNL1       -0.1435
     13 N         138.3831  140.8735  159.4560 N.2     1  UNL1       -0.1284
     14 C         138.1063  141.0084  157.9879 C.ar    1  UNL1        0.1838
     15 C         137.5835  142.3030  157.4392 C.ar    1  UNL1        0.0406
     16 C         137.3066  142.4379  155.9711 C.ar    1  UNL1        0.0048
     17 C         137.5525  141.2783  155.0518 C.ar    1  UNL1        0.0208
     18 C         138.0752  139.9839  155.6006 C.ar    1  UNL1        0.1006
     19 N         138.3521  139.8490  157.0686 N.ar    1  UNL1       -0.2236
@<TRIPOS>BOND
     1     9    10    1
     2    10    11    1
     3    10     1    1
     4     1     2   ar
     5     2     3   ar
     6     3     4   ar
     7     4    12    1
     8    12    13    2
     9    13    14    1
    10    14    15   ar
    11    15    16   ar
    12    16    17   ar
    13    17    18   ar
    14    18    19   ar
    15     4     5   ar
    16     5     6    1
    17     5     7   ar
    18     7     1   ar
    19    19    14   ar
    20     6     8    1
@<TRIPOS>MOLECULE
*****
 19 20 0 0 0
SMALL
GASTEIGER

@<TRIPOS>ATOM
      1 C         139.2562  143.0524  160.5979 C.ar    1  UNL1        0.0511
      2 C         140.3994  143.3989  161.5050 C.ar    1  UNL1        0.0163
      3 C         140.3165  143.0854  162.9695 C.ar    1  UNL1        0.0253
      4 C         139.0904  142.4252  163.5270 C.ar    1  UNL1        0.1365
      5 C         137.9471  142.0787  162.6199 C.ar    1  UNL1        0.1541
      6 O         136.7209  141.4185  163.1773 O.3     1  UNL1       -0.5039
      7 C         138.0300  142.3923  161.1553 C.ar    1  UNL1        0.0527
      8 H         136.6691  141.2226  164.0921 H       1  UNL1        0.2923
      9 C         138.4583  142.6403  158.1600 C.3     1  UNL1        0.1122
     10 N         139.3391  143.3660  159.1334 N.pl3   1  UNL1       -0.3040
     11 C         140.3028  144.4052  158.6423 C.3     1  UNL1        0.1122
     12 N         139.0075  142.1117  164.9915 N.2     1  UNL1       -0.1435
     13 N         140.2195  142.2665  165.8614 N.2     1  UNL1       -0.1284
     14 C         140.1366  141.9529  167.3259 C.ar    1  UNL1        0.1838
     15 C         140.4614  143.0105  168.3389 C.ar    1  UNL1        0.0406
     16 C         140.3784  142.6970  169.8034 C.ar    1  UNL1        0.0048
     17 C         139.9708  141.3258  170.2549 C.ar    1  UNL1        0.0208
     18 C         139.6461  140.2683  169.2420 C.ar    1  UNL1        0.1006
     19 N         139.7290  140.5819  167.7775 N.ar    1  UNL1       -0.2236
@<TRIPOS>BOND
     1     9    10    1
     2    10    11    1
     3    10     1    1
     4     1     2   ar
     5     2     3   ar
     6     3     4   ar
     7     4    12    1
     8    12    13    2
     9    13    14    1
    10    14    15   ar
    11    15    16   ar
    12    16    17   ar
    13    17    18   ar
    14    18    19   ar
    15     4     5   ar
    16     5     6    1
    17     5     7   ar
    18     7     1   ar
    19    19    14   ar
    20     6     8    1
@<TRIPOS>MOLECULE
*****
 19 20 0 0 0
SMALL
GASTEIGER

@<TRIPOS>ATOM
      1 C         138.4318  139.5139  164.7678 C.ar    1  UNL1        0.0511
      2 C         137.8613  140.8198  164.2999 C.ar    1  UNL1        0.0163
      3 C         137.5963  141.0426  162.8404 C.ar    1  UNL1        0.0253
      4 C         137.9019  139.9595  161.8488 C.ar    1  UNL1        0.1365
      5 C         138.4725  138.6536  162.3166 C.ar    1  UNL1        0.1541
      6 O         138.7782  137.5704  161.3250 O.3     1  UNL1       -0.5039
      7 C         138.7375  138.4308  163.7761 C.ar    1  UNL1        0.0527
      8 H         138.6127  137.7096  160.4133 H       1  UNL1        0.2923
      9 C         139.9626  139.8047  166.8467 C.3     1  UNL1        0.1122
     10 N         138.6968  139.2910  166.2273 N.pl3   1  UNL1       -0.3040
     11 C         137.6959  138.5546  167.0674 C.3     1  UNL1        0.1122
     12 N         137.6370  140.1824  160.3893 N.2     1  UNL1       -0.1435
     13 N         138.7418  140.0036  159.3906 N.2     1  UNL1       -0.1284
     14 C         138.4769  140.2264  157.9311 C.ar    1  UNL1        0.1838
     15 C         139.5852  140.0611  156.9339 C.ar    1  UNL1        0.0406
     16 C         139.3202  140.2839  155.4744 C.ar    1  UNL1        0.0048
     17 C         137.9470  140.6721  155.0121 C.ar    1  UNL1        0.0208
     18 C         136.8388  140.8374  156.0093 C.ar    1  UNL1        0.1006
     19 N         137.1037  140.6146  157.4688 N.ar    1  UNL1       -0.2236
@<TRIPOS>BOND
     1     9    10    1
     2    10    11    1
     3    10     1    1
     4     1     2   ar
     5     2     3   ar
     6     3     4   ar
     7     4    12    1
     8    12    13    2
     9    13    14    1
    10    14    15   ar
    11    15    16   ar
    12    16    17   ar
    13    17    18   ar
    14    18    19   ar
    15     4     5   ar
    16     5     6    1
    17     5     7   ar
    18     7     1   ar
    19    19    14   ar
    20     6     8    1
@<TRIPOS>MOLECULE
*****
 19 20 0 0 0
SMALL
GASTEIGER

@<TRIPOS>ATOM
      1 C         144.2881  140.8799  161.7757 C.ar    1  UNL1        0.0511
      2 C         144.2847  139.4906  162.3413 C.ar    1  UNL1        0.0163
      3 C         143.7906  138.3437  161.5104 C.ar    1  UNL1        0.0253
      4 C         143.2999  138.5861  160.1139 C.ar    1  UNL1        0.1365
      5 C         143.3032  139.9753  159.5483 C.ar    1  UNL1        0.1541
      6 O         142.8124  140.2177  158.1516 O.3     1  UNL1       -0.5039
      7 C         143.7973  141.1222  160.3792 C.ar    1  UNL1        0.0527
      8 H         142.5038  139.5013  157.6326 H       1  UNL1        0.2923
      9 C         144.4672  143.4364  162.2022 C.3     1  UNL1        0.1122
     10 N         144.7822  142.0268  162.6067 N.pl3   1  UNL1       -0.3040
     11 C         145.5913  141.7641  163.8421 C.3     1  UNL1        0.1122
     12 N         142.8058  137.4392  159.2829 N.2     1  UNL1       -0.1435
     13 N         143.1434  137.3705  157.8231 N.2     1  UNL1       -0.1284
     14 C         142.6493  136.2236  156.9921 C.ar    1  UNL1        0.1838
     15 C         141.5930  136.4515  155.9517 C.ar    1  UNL1        0.0406
     16 C         141.0989  135.3046  155.1207 C.ar    1  UNL1        0.0048
     17 C         141.6610  133.9298  155.3303 C.ar    1  UNL1        0.0208
     18 C         142.7172  133.7018  156.3707 C.ar    1  UNL1        0.1006
     19 N         143.2113  134.8488  157.2016 N.ar    1  UNL1       -0.2236
@<TRIPOS>BOND
     1     9    10    1
     2    10    11    1
     3    10     1    1
     4     1     2   ar
     5     2     3   ar
     6     3     4   ar
     7     4    12    1
     8    12    13    2
     9    13    14    1
    10    14    15   ar
    11    15    16   ar
    12    16    17   ar
    13    17    18   ar
    14    18    19   ar
    15     4     5   ar
    16     5     6    1
    17     5     7   ar
    18     7     1   ar
    19    19    14   ar
    20     6     8    1
@<TRIPOS>MOLECULE
*****
 19 20 0 0 0
SMALL
GASTEIGER

@<TRIPOS>ATOM
      1 C         143.8488  140.1097  163.1348 C.ar    1  UNL1        0.0511
      2 C         144.4443  140.2660  161.7670 C.ar    1  UNL1        0.0163
      3 C         144.0782  139.3046  160.6753 C.ar    1  UNL1        0.0253
      4 C         143.1167  138.1870  160.9514 C.ar    1  UNL1        0.1365
      5 C         142.5212  138.0307  162.3192 C.ar    1  UNL1        0.1541
      6 O         141.5596  136.9130  162.5954 O.3     1  UNL1       -0.5039
      7 C         142.8873  138.9921  163.4109 C.ar    1  UNL1        0.0527
      8 H         141.3310  136.3125  161.9134 H       1  UNL1        0.2923
      9 C         145.3963  141.9801  164.0603 C.3     1  UNL1        0.1122
     10 N         144.2148  141.0711  164.2265 N.pl3   1  UNL1       -0.3040
     11 C         143.3993  141.1234  165.4843 C.3     1  UNL1        0.1122
     12 N         142.7507  137.2256  159.8597 N.2     1  UNL1       -0.1435
     13 N         142.9098  137.6263  158.4230 N.2     1  UNL1       -0.1284
     14 C         142.5437  136.6649  157.3313 C.ar    1  UNL1        0.1838
     15 C         141.5063  137.0428  156.3159 C.ar    1  UNL1        0.0406
     16 C         141.1403  136.0814  155.2242 C.ar    1  UNL1        0.0048
     17 C         141.8117  134.7422  155.1479 C.ar    1  UNL1        0.0208
     18 C         142.8490  134.3644  156.1634 C.ar    1  UNL1        0.1006
     19 N         143.2150  135.3257  157.2551 N.ar    1  UNL1       -0.2236
@<TRIPOS>BOND
     1     9    10    1
     2    10    11    1
     3    10     1    1
     4     1     2   ar
     5     2     3   ar
     6     3     4   ar
     7     4    12    1
     8    12    13    2
     9    13    14    1
    10    14    15   ar
    11    15    16   ar
    12    16    17   ar
    13    17    18   ar
    14    18    19   ar
    15     4     5   ar
    16     5     6    1
    17     5     7   ar
    18     7     1   ar
    19    19    14   ar
    20     6     8    1
