@<TRIPOS>MOLECULE
*****
 24 26 0 0 0
SMALL
GASTEIGER

@<TRIPOS>ATOM
      1 C         141.4315  140.9229  167.2716 C.3     1  UNL1        0.0847
      2 N         141.1755  141.3159  168.6964 N.3     1  UNL1       -0.2676
      3 C         141.6819  140.4539  169.8147 C.3     1  UNL1        0.0896
      4 C         141.4259  140.8468  171.2395 C.3     1  UNL1        0.0862
      5 N         140.6635  142.1017  171.5460 N.3     1  UNL1       -0.2951
      6 C         140.1572  142.9637  170.4277 C.3     1  UNL1        0.0862
      7 C         140.4131  142.5708  169.0029 C.3     1  UNL1        0.0896
      8 H         141.2758  142.6867  172.1146 H       1  UNL1        0.1233
      9 C         140.5659  139.8913  166.6110 C.ar    1  UNL1       -0.0075
     10 C         139.1289  139.7469  167.0163 C.ar    1  UNL1       -0.0030
     11 C         138.2633  138.7153  166.3557 C.ar    1  UNL1       -0.0003
     12 C         138.8346  137.8280  165.2897 C.ar    1  UNL1       -0.0000
     13 C         140.2716  137.9724  164.8843 C.ar    1  UNL1       -0.0003
     14 C         141.1372  139.0040  165.5449 C.ar    1  UNL1       -0.0030
     15 C         142.5532  141.5616  166.5074 C.3     1  UNL1        0.0499
     16 C         143.3945  143.3480  164.8189 C.ar    1  UNL1        0.1346
     17 C         143.1123  144.4865  163.8840 C.ar    1  UNL1        0.0366
     18 C         141.7065  144.9771  163.7026 C.ar    1  UNL1        0.0031
     19 C         140.5829  144.3292  164.4561 C.ar    1  UNL1       -0.0001
     20 C         140.8651  143.1907  165.3910 C.ar    1  UNL1       -0.0012
     21 C         142.2709  142.7001  165.5724 C.ar    1  UNL1        0.0135
     22 O         144.8004  142.8573  165.0004 O.3     1  UNL1       -0.4758
     23 C         145.1726  140.4605  164.0695 C.3     1  UNL1        0.0512
     24 C         145.4112  141.9389  163.9839 C.3     1  UNL1        0.2055
@<TRIPOS>BOND
     1    23    24    1
     2    24    22    1
     3    22    16    1
     4    16    17   ar
     5    17    18   ar
     6    18    19   ar
     7    19    20   ar
     8    20    21   ar
     9    21    15    1
    10     1    15    1
    11     1     9    1
    12     9    10   ar
    13    10    11   ar
    14    11    12   ar
    15    12    13   ar
    16    13    14   ar
    17     1     2    1
    18     2     3    1
    19     3     4    1
    20     4     5    1
    21     5     6    1
    22     6     7    1
    23    21    16   ar
    24    14     9   ar
    25     7     2    1
    26     5     8    1
@<TRIPOS>MOLECULE
*****
 24 26 0 0 0
SMALL
GASTEIGER

@<TRIPOS>ATOM
      1 C         140.6257  141.0989  167.4714 C.3     1  UNL1        0.0847
      2 N         141.1523  140.9384  168.8668 N.3     1  UNL1       -0.2676
      3 C         142.3710  140.1005  169.1167 C.3     1  UNL1        0.0896
      4 C         142.8976  139.9400  170.5120 C.3     1  UNL1        0.0862
      5 N         142.2054  140.6175  171.6574 N.3     1  UNL1       -0.2951
      6 C         140.9867  141.4554  171.4074 C.3     1  UNL1        0.0862
      7 C         140.4601  141.6159  170.0121 C.3     1  UNL1        0.0896
      8 H         142.8948  141.2251  172.1002 H       1  UNL1        0.1233
      9 C         140.0336  139.9225  166.7533 C.ar    1  UNL1       -0.0075
     10 C         138.6573  139.4427  167.1075 C.ar    1  UNL1       -0.0030
     11 C         138.0653  138.2663  166.3894 C.ar    1  UNL1       -0.0003
     12 C         138.8495  137.5698  165.3171 C.ar    1  UNL1       -0.0000
     13 C         140.2258  138.0497  164.9628 C.ar    1  UNL1       -0.0003
     14 C         140.8179  139.2260  165.6809 C.ar    1  UNL1       -0.0030
     15 C         140.6913  142.4357  166.7941 C.3     1  UNL1        0.0499
     16 C         141.4375  143.2198  164.4322 C.ar    1  UNL1        0.1346
     17 C         142.5279  143.5068  163.4430 C.ar    1  UNL1        0.0366
     18 C         143.9627  143.2964  163.8265 C.ar    1  UNL1        0.0031
     19 C         144.3070  142.7992  165.1991 C.ar    1  UNL1       -0.0001
     20 C         143.2166  142.5122  166.1883 C.ar    1  UNL1       -0.0012
     21 C         141.7818  142.7226  165.8049 C.ar    1  UNL1        0.0135
     22 O         140.0026  143.4302  164.0488 O.3     1  UNL1       -0.4758
     23 C         138.4677  144.9797  165.4606 C.3     1  UNL1        0.0512
     24 C         139.3550  144.7649  164.2704 C.3     1  UNL1        0.2055
@<TRIPOS>BOND
     1    23    24    1
     2    24    22    1
     3    22    16    1
     4    16    17   ar
     5    17    18   ar
     6    18    19   ar
     7    19    20   ar
     8    20    21   ar
     9    21    15    1
    10     1    15    1
    11     1     9    1
    12     9    10   ar
    13    10    11   ar
    14    11    12   ar
    15    12    13   ar
    16    13    14   ar
    17     1     2    1
    18     2     3    1
    19     3     4    1
    20     4     5    1
    21     5     6    1
    22     6     7    1
    23    21    16   ar
    24    14     9   ar
    25     7     2    1
    26     5     8    1
@<TRIPOS>MOLECULE
*****
 24 26 0 0 0
SMALL
GASTEIGER

@<TRIPOS>ATOM
      1 C         141.3264  140.9817  167.2063 C.3     1  UNL1        0.0847
      2 N         141.5895  140.9253  168.6820 N.3     1  UNL1       -0.2676
      3 C         142.6253  139.9852  169.2237 C.3     1  UNL1        0.0896
      4 C         142.8885  139.9287  170.6993 C.3     1  UNL1        0.0862
      5 N         142.1159  140.8123  171.6333 N.3     1  UNL1       -0.2951
      6 C         141.0801  141.7524  171.0916 C.3     1  UNL1        0.0862
      7 C         140.8169  141.8089  169.6160 C.3     1  UNL1        0.0896
      8 H         142.7990  141.3825  172.1319 H       1  UNL1        0.1233
      9 C         140.4964  139.9178  166.5512 C.ar    1  UNL1       -0.0075
     10 C         139.0683  139.7196  166.9650 C.ar    1  UNL1       -0.0030
     11 C         138.2384  138.6556  166.3098 C.ar    1  UNL1       -0.0003
     12 C         138.8366  137.7898  165.2410 C.ar    1  UNL1       -0.0000
     13 C         140.2647  137.9879  164.8273 C.ar    1  UNL1       -0.0003
     14 C         141.0947  139.0519  165.4824 C.ar    1  UNL1       -0.0030
     15 C         141.8932  142.1022  166.3858 C.3     1  UNL1        0.0499
     16 C         141.3207  143.3313  164.1695 C.ar    1  UNL1        0.1346
     17 C         140.4067  144.2137  163.3721 C.ar    1  UNL1        0.0366
     18 C         139.1511  144.7496  163.9936 C.ar    1  UNL1        0.0031
     19 C         138.8095  144.4030  165.4125 C.ar    1  UNL1       -0.0001
     20 C         139.7235  143.5206  166.2099 C.ar    1  UNL1       -0.0012
     21 C         140.9791  142.9847  165.5884 C.ar    1  UNL1        0.0135
     22 O         142.5763  142.7954  163.5480 O.3     1  UNL1       -0.4758
     23 C         143.8314  145.0117  164.0606 C.3     1  UNL1        0.0512
     24 C         143.8584  143.5653  163.6643 C.3     1  UNL1        0.2055
@<TRIPOS>BOND
     1    23    24    1
     2    24    22    1
     3    22    16    1
     4    16    17   ar
     5    17    18   ar
     6    18    19   ar
     7    19    20   ar
     8    20    21   ar
     9    21    15    1
    10     1    15    1
    11     1     9    1
    12     9    10   ar
    13    10    11   ar
    14    11    12   ar
    15    12    13   ar
    16    13    14   ar
    17     1     2    1
    18     2     3    1
    19     3     4    1
    20     4     5    1
    21     5     6    1
    22     6     7    1
    23    21    16   ar
    24    14     9   ar
    25     7     2    1
    26     5     8    1
@<TRIPOS>MOLECULE
*****
 24 26 0 0 0
SMALL
GASTEIGER

@<TRIPOS>ATOM
      1 C         141.1032  142.2703  166.9600 C.3     1  UNL1        0.0847
      2 N         140.8014  141.8813  168.3769 N.3     1  UNL1       -0.2676
      3 C         140.4580  142.9356  169.3872 C.3     1  UNL1        0.0896
      4 C         140.1562  142.5466  170.8041 C.3     1  UNL1        0.0862
      5 N         140.1978  141.1034  171.2107 N.3     1  UNL1       -0.2951
      6 C         140.5412  140.0492  170.2005 C.3     1  UNL1        0.0862
      7 C         140.8430  140.4381  168.7836 C.3     1  UNL1        0.0896
      8 H         139.2729  140.8731  171.5739 H       1  UNL1        0.1233
      9 C         139.9878  142.4105  165.9669 C.ar    1  UNL1       -0.0075
     10 C         139.2895  141.1894  165.4459 C.ar    1  UNL1       -0.0030
     11 C         138.1741  141.3297  164.4528 C.ar    1  UNL1       -0.0003
     12 C         137.7569  142.6910  163.9808 C.ar    1  UNL1       -0.0000
     13 C         138.4552  143.9120  164.5018 C.ar    1  UNL1       -0.0003
     14 C         139.5706  143.7718  165.4948 C.ar    1  UNL1       -0.0030
     15 C         142.5204  142.5191  166.5362 C.3     1  UNL1        0.0499
     16 C         144.2915  141.9343  164.7276 C.ar    1  UNL1        0.1346
     17 C         145.0180  140.9134  163.9030 C.ar    1  UNL1        0.0366
     18 C         144.6997  139.4563  164.0624 C.ar    1  UNL1        0.0031
     19 C         143.6549  139.0201  165.0464 C.ar    1  UNL1       -0.0001
     20 C         142.9285  140.0410  165.8710 C.ar    1  UNL1       -0.0012
     21 C         143.2468  141.4981  165.7116 C.ar    1  UNL1        0.0135
     22 O         144.6098  143.3915  164.5682 O.3     1  UNL1       -0.4758
     23 C         142.7743  145.0575  163.7902 C.3     1  UNL1        0.0512
     24 C         143.9554  144.1872  163.4779 C.3     1  UNL1        0.2055
@<TRIPOS>BOND
     1    23    24    1
     2    24    22    1
     3    22    16    1
     4    16    17   ar
     5    17    18   ar
     6    18    19   ar
     7    19    20   ar
     8    20    21   ar
     9    21    15    1
    10     1    15    1
    11     1     9    1
    12     9    10   ar
    13    10    11   ar
    14    11    12   ar
    15    12    13   ar
    16    13    14   ar
    17     1     2    1
    18     2     3    1
    19     3     4    1
    20     4     5    1
    21     5     6    1
    22     6     7    1
    23    21    16   ar
    24    14     9   ar
    25     7     2    1
    26     5     8    1
@<TRIPOS>MOLECULE
*****
 24 26 0 0 0
SMALL
GASTEIGER

@<TRIPOS>ATOM
      1 C         141.9950  140.9463  166.6980 C.3     1  UNL1        0.0847
      2 N         142.2015  141.0990  168.1759 N.3     1  UNL1       -0.2676
      3 C         142.0814  142.4510  168.8143 C.3     1  UNL1        0.0896
      4 C         142.2878  142.6037  170.2921 C.3     1  UNL1        0.0862
      5 N         142.6144  141.4044  171.1316 N.3     1  UNL1       -0.2951
      6 C         142.7345  140.0523  170.4932 C.3     1  UNL1        0.0862
      7 C         142.5280  139.8996  169.0154 C.3     1  UNL1        0.0896
      8 H         141.8831  141.3321  171.8389 H       1  UNL1        0.1233
      9 C         143.1530  141.1074  165.7583 C.ar    1  UNL1       -0.0075
     10 C         143.6997  142.4740  165.4692 C.ar    1  UNL1       -0.0030
     11 C         144.8578  142.6351  164.5295 C.ar    1  UNL1       -0.0003
     12 C         145.4690  141.4296  163.8789 C.ar    1  UNL1       -0.0000
     13 C         144.9223  140.0631  164.1681 C.ar    1  UNL1       -0.0003
     14 C         143.7643  139.9020  165.1077 C.ar    1  UNL1       -0.0030
     15 C         140.6304  140.6325  166.1599 C.3     1  UNL1        0.0499
     16 C         138.5170  141.4059  164.8615 C.ar    1  UNL1        0.1346
     17 C         137.6462  142.5084  164.3363 C.ar    1  UNL1        0.0366
     18 C         138.0178  143.9403  164.5842 C.ar    1  UNL1        0.0031
     19 C         139.2603  144.2697  165.3573 C.ar    1  UNL1       -0.0001
     20 C         140.1312  143.1671  165.8825 C.ar    1  UNL1       -0.0012
     21 C         139.7596  141.7352  165.6346 C.ar    1  UNL1        0.0135
     22 O         138.1454  139.9739  164.6136 O.3     1  UNL1       -0.4758
     23 C         138.8980  137.8793  163.2733 C.3     1  UNL1        0.0512
     24 C         138.4947  139.3237  163.3078 C.3     1  UNL1        0.2055
@<TRIPOS>BOND
     1    23    24    1
     2    24    22    1
     3    22    16    1
     4    16    17   ar
     5    17    18   ar
     6    18    19   ar
     7    19    20   ar
     8    20    21   ar
     9    21    15    1
    10     1    15    1
    11     1     9    1
    12     9    10   ar
    13    10    11   ar
    14    11    12   ar
    15    12    13   ar
    16    13    14   ar
    17     1     2    1
    18     2     3    1
    19     3     4    1
    20     4     5    1
    21     5     6    1
    22     6     7    1
    23    21    16   ar
    24    14     9   ar
    25     7     2    1
    26     5     8    1
@<TRIPOS>MOLECULE
*****
 24 26 0 0 0
SMALL
GASTEIGER

@<TRIPOS>ATOM
      1 C         140.3980  141.1650  167.6107 C.3     1  UNL1        0.0847
      2 N         141.0234  140.9757  168.9609 N.3     1  UNL1       -0.2676
      3 C         140.4169  141.6302  170.1667 C.3     1  UNL1        0.0896
      4 C         141.0422  141.4409  171.5169 C.3     1  UNL1        0.0862
      5 N         142.2739  140.5971  171.6614 N.3     1  UNL1       -0.2951
      6 C         142.8803  139.9426  170.4556 C.3     1  UNL1        0.0862
      7 C         142.2551  140.1319  169.1054 C.3     1  UNL1        0.0896
      8 H         142.0441  139.8506  172.3174 H       1  UNL1        0.1233
      9 C         139.8972  139.9777  166.8430 C.ar    1  UNL1       -0.0075
     10 C         140.7668  139.3359  165.8028 C.ar    1  UNL1       -0.0030
     11 C         140.2659  138.1486  165.0350 C.ar    1  UNL1       -0.0003
     12 C         138.8955  137.6030  165.3075 C.ar    1  UNL1       -0.0000
     13 C         138.0259  138.2447  166.3477 C.ar    1  UNL1       -0.0003
     14 C         138.5267  139.4320  167.1154 C.ar    1  UNL1       -0.0030
     15 C         140.2735  142.5416  167.0282 C.3     1  UNL1        0.0499
     16 C         140.2464  143.4716  164.6024 C.ar    1  UNL1        0.1346
     17 C         140.9715  143.8186  163.3360 C.ar    1  UNL1        0.0366
     18 C         142.4489  143.5824  163.2289 C.ar    1  UNL1        0.0031
     19 C         143.2012  142.9993  164.3883 C.ar    1  UNL1       -0.0001
     20 C         142.4761  142.6523  165.6547 C.ar    1  UNL1       -0.0012
     21 C         140.9987  142.8885  165.7617 C.ar    1  UNL1        0.0135
     22 O         138.7690  143.7078  164.7095 O.3     1  UNL1       -0.4758
     23 C         138.3109  141.3224  163.7877 C.3     1  UNL1        0.0512
     24 C         137.8074  142.6041  164.3822 C.3     1  UNL1        0.2055
@<TRIPOS>BOND
     1    23    24    1
     2    24    22    1
     3    22    16    1
     4    16    17   ar
     5    17    18   ar
     6    18    19   ar
     7    19    20   ar
     8    20    21   ar
     9    21    15    1
    10     1    15    1
    11     1     9    1
    12     9    10   ar
    13    10    11   ar
    14    11    12   ar
    15    12    13   ar
    16    13    14   ar
    17     1     2    1
    18     2     3    1
    19     3     4    1
    20     4     5    1
    21     5     6    1
    22     6     7    1
    23    21    16   ar
    24    14     9   ar
    25     7     2    1
    26     5     8    1
@<TRIPOS>MOLECULE
*****
 24 26 0 0 0
SMALL
GASTEIGER

@<TRIPOS>ATOM
      1 C         141.5741  142.1758  166.0864 C.3     1  UNL1        0.0847
      2 N         141.0966  143.3020  165.2181 N.3     1  UNL1       -0.2676
      3 C         142.0734  144.0611  164.3698 C.3     1  UNL1        0.0896
      4 C         141.5959  145.1872  163.5015 C.3     1  UNL1        0.0862
      5 N         140.1417  145.5542  163.4815 N.3     1  UNL1       -0.2951
      6 C         139.1649  144.7951  164.3299 C.3     1  UNL1        0.0862
      7 C         139.6423  143.6690  165.1981 C.3     1  UNL1        0.0896
      8 H         139.8276  145.4607  162.5156 H       1  UNL1        0.1233
      9 C         141.8436  142.4139  167.5426 C.ar    1  UNL1       -0.0075
     10 C         140.7333  142.8581  168.4480 C.ar    1  UNL1       -0.0030
     11 C         141.0029  143.0962  169.9043 C.ar    1  UNL1       -0.0003
     12 C         142.3828  142.8900  170.4551 C.ar    1  UNL1       -0.0000
     13 C         143.4931  142.4458  169.5496 C.ar    1  UNL1       -0.0003
     14 C         143.2236  142.2078  168.0934 C.ar    1  UNL1       -0.0030
     15 C         141.7820  140.8116  165.4983 C.3     1  UNL1        0.0499
     16 C         140.8878  138.4313  164.9649 C.ar    1  UNL1        0.1346
     17 C         139.7813  137.4195  165.0078 C.ar    1  UNL1        0.0366
     18 C         138.4625  137.7762  165.6270 C.ar    1  UNL1        0.0031
     19 C         138.2501  139.1447  166.2033 C.ar    1  UNL1       -0.0001
     20 C         139.3566  140.1565  166.1604 C.ar    1  UNL1       -0.0012
     21 C         140.6754  139.7998  165.5412 C.ar    1  UNL1        0.0135
     22 O         142.2067  138.0746  164.3457 O.3     1  UNL1       -0.4758
     23 C         143.7293  138.5840  162.3032 C.3     1  UNL1        0.0512
     24 C         142.3943  138.1899  162.8620 C.3     1  UNL1        0.2055
@<TRIPOS>BOND
     1    23    24    1
     2    24    22    1
     3    22    16    1
     4    16    17   ar
     5    17    18   ar
     6    18    19   ar
     7    19    20   ar
     8    20    21   ar
     9    21    15    1
    10     1    15    1
    11     1     9    1
    12     9    10   ar
    13    10    11   ar
    14    11    12   ar
    15    12    13   ar
    16    13    14   ar
    17     1     2    1
    18     2     3    1
    19     3     4    1
    20     4     5    1
    21     5     6    1
    22     6     7    1
    23    21    16   ar
    24    14     9   ar
    25     7     2    1
    26     5     8    1
@<TRIPOS>MOLECULE
*****
 24 26 0 0 0
SMALL
GASTEIGER

@<TRIPOS>ATOM
      1 C         139.6401  141.3862  165.7973 C.3     1  UNL1        0.0847
      2 N         139.3088  142.2849  164.6429 N.3     1  UNL1       -0.2676
      3 C         137.9362  142.8782  164.5242 C.3     1  UNL1        0.0896
      4 C         137.6049  143.7769  163.3699 C.3     1  UNL1        0.0862
      5 N         138.6460  144.0822  162.3342 N.3     1  UNL1       -0.2951
      6 C         140.0186  143.4888  162.4528 C.3     1  UNL1        0.0862
      7 C         140.3499  142.5901  163.6072 C.3     1  UNL1        0.0896
      8 H         138.7631  145.0954  162.3241 H       1  UNL1        0.1233
      9 C         139.1545  139.9670  165.8064 C.ar    1  UNL1       -0.0075
     10 C         139.7112  138.9775  164.8262 C.ar    1  UNL1       -0.0030
     11 C         139.2255  137.5582  164.8353 C.ar    1  UNL1       -0.0003
     12 C         138.1832  137.1286  165.8247 C.ar    1  UNL1       -0.0000
     13 C         137.6265  138.1182  166.8049 C.ar    1  UNL1       -0.0003
     14 C         138.1121  139.5373  166.7958 C.ar    1  UNL1       -0.0030
     15 C         140.4570  141.9067  166.9425 C.3     1  UNL1        0.0499
     16 C         140.6335  140.8518  169.3103 C.ar    1  UNL1        0.1346
     17 C         141.2894  139.8939  170.2601 C.ar    1  UNL1        0.0366
     18 C         142.4249  139.0329  169.7918 C.ar    1  UNL1        0.0031
     19 C         142.9045  139.1298  168.3739 C.ar    1  UNL1       -0.0001
     20 C         142.2485  140.0877  167.4241 C.ar    1  UNL1       -0.0012
     21 C         141.1130  140.9487  167.8923 C.ar    1  UNL1        0.0135
     22 O         139.4979  141.7129  169.7785 O.3     1  UNL1       -0.4758
     23 C         140.4500  144.1227  169.9687 C.3     1  UNL1        0.0512
     24 C         139.7746  142.9396  170.5963 C.3     1  UNL1        0.2055
@<TRIPOS>BOND
     1    23    24    1
     2    24    22    1
     3    22    16    1
     4    16    17   ar
     5    17    18   ar
     6    18    19   ar
     7    19    20   ar
     8    20    21   ar
     9    21    15    1
    10     1    15    1
    11     1     9    1
    12     9    10   ar
    13    10    11   ar
    14    11    12   ar
    15    12    13   ar
    16    13    14   ar
    17     1     2    1
    18     2     3    1
    19     3     4    1
    20     4     5    1
    21     5     6    1
    22     6     7    1
    23    21    16   ar
    24    14     9   ar
    25     7     2    1
    26     5     8    1
@<TRIPOS>MOLECULE
*****
 24 26 0 0 0
SMALL
GASTEIGER

@<TRIPOS>ATOM
      1 C         141.1745  141.4810  166.9327 C.3     1  UNL1        0.0847
      2 N         141.3222  141.8664  168.3749 N.3     1  UNL1       -0.2676
      3 C         142.6352  142.3851  168.8819 C.3     1  UNL1        0.0896
      4 C         142.7829  142.7706  170.3240 C.3     1  UNL1        0.0862
      5 N         141.6176  142.6373  171.2590 N.3     1  UNL1       -0.2951
      6 C         140.3046  142.1187  170.7520 C.3     1  UNL1        0.0862
      7 C         140.1569  141.7332  169.3099 C.3     1  UNL1        0.0896
      8 H         141.4394  143.5659  171.6416 H       1  UNL1        0.1233
      9 C         140.0893  142.0956  166.0994 C.ar    1  UNL1       -0.0075
     10 C         139.9916  143.5874  165.9770 C.ar    1  UNL1       -0.0030
     11 C         138.9063  144.2021  165.1436 C.ar    1  UNL1       -0.0003
     12 C         137.9188  143.3250  164.4328 C.ar    1  UNL1       -0.0000
     13 C         138.0165  141.8332  164.5553 C.ar    1  UNL1       -0.0003
     14 C         139.1017  141.2185  165.3885 C.ar    1  UNL1       -0.0030
     15 C         142.1121  140.4808  166.3240 C.3     1  UNL1        0.0499
     16 C         143.8906  139.9898  164.4948 C.ar    1  UNL1        0.1346
     17 C         145.0190  140.4539  163.6222 C.ar    1  UNL1        0.0366
     18 C         145.4972  141.8731  163.7062 C.ar    1  UNL1        0.0031
     19 C         144.8471  142.8282  164.6628 C.ar    1  UNL1       -0.0001
     20 C         143.7188  142.3642  165.5354 C.ar    1  UNL1       -0.0012
     21 C         143.2405  140.9450  165.4514 C.ar    1  UNL1        0.0135
     22 O         143.4123  138.5706  164.4108 O.3     1  UNL1       -0.4758
     23 C         140.9927  138.4126  163.4779 C.3     1  UNL1        0.0512
     24 C         142.4635  138.1621  163.3232 C.3     1  UNL1        0.2055
@<TRIPOS>BOND
     1    23    24    1
     2    24    22    1
     3    22    16    1
     4    16    17   ar
     5    17    18   ar
     6    18    19   ar
     7    19    20   ar
     8    20    21   ar
     9    21    15    1
    10     1    15    1
    11     1     9    1
    12     9    10   ar
    13    10    11   ar
    14    11    12   ar
    15    12    13   ar
    16    13    14   ar
    17     1     2    1
    18     2     3    1
    19     3     4    1
    20     4     5    1
    21     5     6    1
    22     6     7    1
    23    21    16   ar
    24    14     9   ar
    25     7     2    1
    26     5     8    1
