@<TRIPOS>MOLECULE
*****
 40 43 0 0 0
SMALL
GASTEIGER

@<TRIPOS>ATOM
      1 S         140.3995  138.5568  163.0360 S.O2    1  UNL1        0.0638
      2 O         141.7087  138.9727  163.6385 O.2     1  UNL1       -0.1528
      3 O         139.0903  138.1409  162.4335 O.2     1  UNL1       -0.1528
      4 C         142.4106  138.0016  159.0489 C.ar    1  UNL1        0.1391
      5 C         140.9992  138.5055  159.1133 C.ar    1  UNL1        0.0383
      6 C         140.3288  138.6905  160.4423 C.ar    1  UNL1        0.0230
      7 C         141.0699  138.3717  161.7070 C.ar    1  UNL1        0.1224
      8 C         142.4812  137.8679  161.6425 C.ar    1  UNL1        0.0230
      9 C         143.1516  137.6828  160.3135 C.ar    1  UNL1        0.0383
     10 O         143.0810  137.8165  157.7198 O.3     1  UNL1       -0.4706
     11 C         142.3727  137.0859  156.6178 C.3     1  UNL1        0.2321
     12 C         144.7839  132.6594  157.8797 C.3     1  UNL1        0.0521
     13 C         143.9674  133.4637  156.9119 C.ar    1  UNL1        0.0591
     14 C         143.5783  134.8726  157.2487 C.ar    1  UNL1        0.0141
     15 C         142.7618  135.6769  156.2810 C.ar    1  UNL1        0.0238
     16 C         142.3345  135.0723  154.9765 C.ar    1  UNL1        0.0172
     17 C         141.5180  135.8766  154.0088 C.ar    1  UNL1        0.0013
     18 C         141.0907  135.2719  152.7043 C.ar    1  UNL1        0.0001
     19 C         141.4798  133.8630  152.3675 C.ar    1  UNL1        0.0015
     20 C         142.2963  133.0587  153.3352 C.ar    1  UNL1        0.0191
     21 C         142.7236  133.6633  154.6397 C.ar    1  UNL1        0.0807
     22 N         143.5401  132.8590  155.6075 N.ar    1  UNL1       -0.2497
     23 N         139.7291  138.7419  164.3650 N.3     1  UNL1       -0.1451
     24 C         138.8802  137.6450  164.9361 C.3     1  UNL1        0.1155
     25 C         139.9077  140.0239  165.1231 C.3     1  UNL1        0.1721
     26 C         140.7530  139.3082  166.1345 C.3     1  UNL1        0.1203
     27 N         140.9316  140.5902  166.8925 N.am    1  UNL1       -0.2756
     28 C         141.6556  140.9906  168.1437 C.2     1  UNL1        0.2257
     29 O         142.4259  139.9674  168.9245 O.2     1  UNL1       -0.2749
     30 C         140.0863  141.3060  165.8810 C.3     1  UNL1        0.1203
     31 C         139.0624  140.7397  164.1116 C.2     1  UNL1        0.2620
     32 O         139.7024  141.6639  163.1185 O.2     1  UNL1       -0.2715
     33 N         137.5770  140.5312  164.0932 N.am    1  UNL1       -0.1958
     34 O         136.7317  141.2469  163.0817 O.3     1  UNL1       -0.2951
     35 H         137.1570  139.9246  164.7450 H       1  UNL1        0.1823
     36 H         137.2976  141.7999  162.5206 H       1  UNL1        0.2414
     37 C         141.6092  142.4142  168.6140 C.3     1  UNL1        0.0853
     38 C         140.5458  142.8516  169.5772 C.3     1  UNL1        0.0091
     39 C         140.4408  144.2942  169.9743 C.3     1  UNL1        0.0005
     40 C         139.5873  141.8463  170.1435 C.3     1  UNL1        0.0005
@<TRIPOS>BOND
     1    12    13    1
     2    13    14   ar
     3    14    15   ar
     4    15    11    1
     5    11    10    1
     6    10     4    1
     7     4     5   ar
     8     5     6   ar
     9     6     7   ar
    10     7     1    1
    11     1     2    2
    12     1     3    2
    13     1    23    1
    14    23    24    1
    15    23    25    1
    16    25    31    1
    17    31    32    2
    18    31    33   am
    19    33    34    1
    20    25    26    1
    21    26    27    1
    22    27    28   am
    23    28    29    2
    24    28    37    1
    25    37    38    1
    26    38    39    1
    27    38    40    1
    28    27    30    1
    29     7     8   ar
    30     8     9   ar
    31    15    16   ar
    32    16    17   ar
    33    17    18   ar
    34    18    19   ar
    35    19    20   ar
    36    20    21   ar
    37    21    22   ar
    38    22    13   ar
    39     9     4   ar
    40    21    16   ar
    41    30    25    1
    42    33    35    1
    43    34    36    1
@<TRIPOS>MOLECULE
*****
 40 43 0 0 0
SMALL
GASTEIGER

@<TRIPOS>ATOM
      1 S         139.9083  142.2966  159.8194 S.O2    1  UNL1        0.0638
      2 O         140.9946  141.2680  159.9288 O.2     1  UNL1       -0.1528
      3 O         138.8221  143.3253  159.7100 O.2     1  UNL1       -0.1528
      4 C         138.2502  140.9676  163.7860 C.ar    1  UNL1        0.1391
      5 C         139.2890  142.0483  163.7316 C.ar    1  UNL1        0.0383
      6 C         139.8417  142.4913  162.4093 C.ar    1  UNL1        0.0230
      7 C         139.3556  141.8536  161.1416 C.ar    1  UNL1        0.1224
      8 C         138.3168  140.7729  161.1961 C.ar    1  UNL1        0.0230
      9 C         137.7641  140.3299  162.5183 C.ar    1  UNL1        0.0383
     10 O         137.6974  140.5246  165.1082 O.3     1  UNL1       -0.4706
     11 C         138.2898  139.3382  165.8092 C.3     1  UNL1        0.2321
     12 C         140.4507  140.5146  170.3860 C.3     1  UNL1        0.0521
     13 C         140.5910  140.0932  168.9532 C.ar    1  UNL1        0.0591
     14 C         139.3703  139.9264  168.0975 C.ar    1  UNL1        0.0141
     15 C         139.5105  139.5049  166.6648 C.ar    1  UNL1        0.0238
     16 C         140.8715  139.2503  166.0877 C.ar    1  UNL1        0.0172
     17 C         141.0117  138.8289  164.6550 C.ar    1  UNL1        0.0013
     18 C         142.3726  138.5743  164.0779 C.ar    1  UNL1        0.0001
     19 C         143.5933  138.7411  164.9335 C.ar    1  UNL1        0.0015
     20 C         143.4531  139.1625  166.3662 C.ar    1  UNL1        0.0191
     21 C         142.0921  139.4171  166.9433 C.ar    1  UNL1        0.0807
     22 N         141.9519  139.8385  168.3761 N.ar    1  UNL1       -0.2497
     23 N         140.4611  142.7396  158.4972 N.3     1  UNL1       -0.1451
     24 C         140.9467  141.7217  157.5083 C.3     1  UNL1        0.1155
     25 C         140.5281  144.2007  158.1639 C.3     1  UNL1        0.1721
     26 C         139.4710  144.0104  157.1169 C.3     1  UNL1        0.1203
     27 N         139.5381  145.4713  156.7836 N.am    1  UNL1       -0.2756
     28 C         138.8380  146.3698  155.8076 C.2     1  UNL1        0.2257
     29 O         137.7995  145.8078  154.8825 O.2     1  UNL1       -0.2749
     30 C         140.5952  145.6616  157.8306 C.3     1  UNL1        0.1203
     31 C         141.5852  144.3909  159.2109 C.2     1  UNL1        0.2620
     32 O         142.9828  143.9060  158.9625 O.2     1  UNL1       -0.2715
     33 N         141.2448  145.0662  160.5064 N.am    1  UNL1       -0.1958
     34 O         142.3019  145.2565  161.5534 O.3     1  UNL1       -0.2951
     35 H         140.3275  145.3845  160.6694 H       1  UNL1        0.1823
     36 H         143.1415  144.8891  161.2357 H       1  UNL1        0.2414
     37 C         139.1764  147.8302  155.7567 C.3     1  UNL1        0.0853
     38 C         139.7838  148.4165  154.5168 C.3     1  UNL1        0.0091
     39 C         139.6100  149.8754  154.2142 C.3     1  UNL1        0.0005
     40 C         140.5650  147.5441  153.5795 C.3     1  UNL1        0.0005
@<TRIPOS>BOND
     1    12    13    1
     2    13    14   ar
     3    14    15   ar
     4    15    11    1
     5    11    10    1
     6    10     4    1
     7     4     5   ar
     8     5     6   ar
     9     6     7   ar
    10     7     1    1
    11     1     2    2
    12     1     3    2
    13     1    23    1
    14    23    24    1
    15    23    25    1
    16    25    31    1
    17    31    32    2
    18    31    33   am
    19    33    34    1
    20    25    26    1
    21    26    27    1
    22    27    28   am
    23    28    29    2
    24    28    37    1
    25    37    38    1
    26    38    39    1
    27    38    40    1
    28    27    30    1
    29     7     8   ar
    30     8     9   ar
    31    15    16   ar
    32    16    17   ar
    33    17    18   ar
    34    18    19   ar
    35    19    20   ar
    36    20    21   ar
    37    21    22   ar
    38    22    13   ar
    39     9     4   ar
    40    21    16   ar
    41    30    25    1
    42    33    35    1
    43    34    36    1
@<TRIPOS>MOLECULE
*****
 40 43 0 0 0
SMALL
GASTEIGER

@<TRIPOS>ATOM
      1 S         140.0925  138.5069  162.6729 S.O2    1  UNL1        0.0638
      2 O         138.7265  138.0771  162.2266 O.2     1  UNL1       -0.1528
      3 O         141.4585  138.9367  163.1192 O.2     1  UNL1       -0.1528
      4 C         141.5689  138.2184  158.4318 C.ar    1  UNL1        0.1391
      5 C         142.5113  137.9711  159.5725 C.ar    1  UNL1        0.0383
      6 C         142.0191  138.0673  160.9862 C.ar    1  UNL1        0.0230
      7 C         140.5846  138.4107  161.2592 C.ar    1  UNL1        0.1224
      8 C         139.6424  138.6579  160.1186 C.ar    1  UNL1        0.0230
      9 C         140.1346  138.5618  158.7049 C.ar    1  UNL1        0.0383
     10 O         142.0611  138.1222  157.0181 O.3     1  UNL1       -0.4706
     11 C         143.1486  137.1506  156.6670 C.3     1  UNL1        0.2321
     12 C         141.3144  135.6060  152.0572 C.3     1  UNL1        0.0521
     13 C         141.9691  135.2858  153.3683 C.ar    1  UNL1        0.0591
     14 C         142.2315  136.3783  154.3622 C.ar    1  UNL1        0.0141
     15 C         142.8862  136.0582  155.6732 C.ar    1  UNL1        0.0238
     16 C         143.2785  134.6455  155.9905 C.ar    1  UNL1        0.0172
     17 C         143.9332  134.3254  157.3015 C.ar    1  UNL1        0.0013
     18 C         144.3255  132.9128  157.6188 C.ar    1  UNL1        0.0001
     19 C         144.0631  131.8203  156.6250 C.ar    1  UNL1        0.0015
     20 C         143.4084  132.1405  155.3139 C.ar    1  UNL1        0.0191
     21 C         143.0161  133.5530  154.9967 C.ar    1  UNL1        0.0807
     22 N         142.3614  133.8732  153.6856 N.ar    1  UNL1       -0.2497
     23 N         139.6003  138.6030  164.0866 N.3     1  UNL1       -0.1451
     24 C         138.8754  137.4466  164.7087 C.3     1  UNL1        0.1155
     25 C         139.8331  139.8558  164.8782 C.3     1  UNL1        0.1721
     26 C         140.6788  139.0855  165.8485 C.3     1  UNL1        0.1203
     27 N         140.9115  140.3382  166.6401 N.am    1  UNL1       -0.2756
     28 C         141.6741  140.6793  167.8860 C.2     1  UNL1        0.2257
     29 O         142.4307  139.6110  168.6183 O.2     1  UNL1       -0.2749
     30 C         140.0659  141.1085  165.6697 C.3     1  UNL1        0.1203
     31 C         138.9875  140.6260  163.9079 C.2     1  UNL1        0.2620
     32 O         139.6259  141.6113  162.9743 O.2     1  UNL1       -0.2715
     33 N         137.5034  140.4110  163.8711 N.am    1  UNL1       -0.1958
     34 O         136.6578  141.1812  162.9008 O.3     1  UNL1       -0.2951
     35 H         137.0844  139.7643  164.4839 H       1  UNL1        0.1823
     36 H         137.2226  141.7697  162.3759 H       1  UNL1        0.2414
     37 C         141.6800  142.0887  168.3993 C.3     1  UNL1        0.0853
     38 C         140.6184  142.5425  169.3570 C.3     1  UNL1        0.0091
     39 C         139.6211  141.5584  169.8926 C.3     1  UNL1        0.0005
     40 C         140.5541  143.9804  169.7791 C.3     1  UNL1        0.0005
@<TRIPOS>BOND
     1    12    13    1
     2    13    14   ar
     3    14    15   ar
     4    15    11    1
     5    11    10    1
     6    10     4    1
     7     4     5   ar
     8     5     6   ar
     9     6     7   ar
    10     7     1    1
    11     1     2    2
    12     1     3    2
    13     1    23    1
    14    23    24    1
    15    23    25    1
    16    25    31    1
    17    31    32    2
    18    31    33   am
    19    33    34    1
    20    25    26    1
    21    26    27    1
    22    27    28   am
    23    28    29    2
    24    28    37    1
    25    37    38    1
    26    38    39    1
    27    38    40    1
    28    27    30    1
    29     7     8   ar
    30     8     9   ar
    31    15    16   ar
    32    16    17   ar
    33    17    18   ar
    34    18    19   ar
    35    19    20   ar
    36    20    21   ar
    37    21    22   ar
    38    22    13   ar
    39     9     4   ar
    40    21    16   ar
    41    30    25    1
    42    33    35    1
    43    34    36    1
@<TRIPOS>MOLECULE
*****
 40 43 0 0 0
SMALL
GASTEIGER

@<TRIPOS>ATOM
      1 S         142.2819  138.1248  157.7910 S.O2    1  UNL1        0.0638
      2 O         143.6651  138.5003  157.3488 O.2     1  UNL1       -0.1528
      3 O         140.8986  137.7493  158.2332 O.2     1  UNL1       -0.1528
      4 C         143.2296  139.5392  161.9565 C.ar    1  UNL1        0.1391
      5 C         143.1259  140.5287  160.8338 C.ar    1  UNL1        0.0383
      6 C         142.8100  140.0572  159.4453 C.ar    1  UNL1        0.0230
      7 C         142.5978  138.5963  159.1795 C.ar    1  UNL1        0.1224
      8 C         142.7014  137.6069  160.3021 C.ar    1  UNL1        0.0230
      9 C         143.0173  138.0784  161.6906 C.ar    1  UNL1        0.0383
     10 O         143.5455  140.0107  163.3450 O.3     1  UNL1       -0.4706
     11 C         143.1968  139.1537  164.5256 C.3     1  UNL1        0.2321
     12 C         142.7003  142.3371  168.6022 C.3     1  UNL1        0.0521
     13 C         142.1183  141.3074  167.6796 C.ar    1  UNL1        0.0591
     14 C         142.9485  140.7454  166.5639 C.ar    1  UNL1        0.0141
     15 C         142.3666  139.7157  165.6413 C.ar    1  UNL1        0.0238
     16 C         140.9545  139.2481  165.8344 C.ar    1  UNL1        0.0172
     17 C         140.3726  138.2184  164.9119 C.ar    1  UNL1        0.0013
     18 C         138.9606  137.7508  165.1050 C.ar    1  UNL1        0.0001
     19 C         138.1304  138.3128  166.2208 C.ar    1  UNL1        0.0015
     20 C         138.7122  139.3425  167.1434 C.ar    1  UNL1        0.0191
     21 C         140.1243  139.8101  166.9502 C.ar    1  UNL1        0.0807
     22 N         140.7062  140.8398  167.8728 N.ar    1  UNL1       -0.2497
     23 N         141.9660  137.6533  156.4025 N.3     1  UNL1       -0.1451
     24 C         141.8804  138.6406  155.2765 C.3     1  UNL1        0.1155
     25 C         141.7357  136.1944  156.1401 C.3     1  UNL1        0.1721
     26 C         142.9889  135.8609  156.8938 C.3     1  UNL1        0.1203
     27 N         142.7585  134.4022  156.6314 N.am    1  UNL1       -0.2756
     28 C         143.4819  133.1349  156.9788 C.2     1  UNL1        0.2257
     29 O         144.7520  133.1903  157.7749 O.2     1  UNL1       -0.2749
     30 C         141.5053  134.7357  155.8776 C.3     1  UNL1        0.1203
     31 C         140.4825  136.5279  155.3863 C.2     1  UNL1        0.2620
     32 O         140.4866  136.5266  153.8863 O.2     1  UNL1       -0.2715
     33 N         139.2250  136.8628  156.1325 N.am    1  UNL1       -0.1958
     34 O         137.9718  137.1963  155.3788 O.3     1  UNL1       -0.2951
     35 H         139.2223  136.8636  157.1170 H       1  UNL1        0.1823
     36 H         138.1457  137.1498  154.4256 H       1  UNL1        0.2414
     37 C         142.9350  131.8121  156.5302 C.3     1  UNL1        0.0853
     38 C         143.7732  130.5741  156.6513 C.3     1  UNL1        0.0091
     39 C         144.7933  130.2530  155.5995 C.3     1  UNL1        0.0005
     40 C         143.5912  129.6569  157.8243 C.3     1  UNL1        0.0005
@<TRIPOS>BOND
     1    12    13    1
     2    13    14   ar
     3    14    15   ar
     4    15    11    1
     5    11    10    1
     6    10     4    1
     7     4     5   ar
     8     5     6   ar
     9     6     7   ar
    10     7     1    1
    11     1     2    2
    12     1     3    2
    13     1    23    1
    14    23    24    1
    15    23    25    1
    16    25    31    1
    17    31    32    2
    18    31    33   am
    19    33    34    1
    20    25    26    1
    21    26    27    1
    22    27    28   am
    23    28    29    2
    24    28    37    1
    25    37    38    1
    26    38    39    1
    27    38    40    1
    28    27    30    1
    29     7     8   ar
    30     8     9   ar
    31    15    16   ar
    32    16    17   ar
    33    17    18   ar
    34    18    19   ar
    35    19    20   ar
    36    20    21   ar
    37    21    22   ar
    38    22    13   ar
    39     9     4   ar
    40    21    16   ar
    41    30    25    1
    42    33    35    1
    43    34    36    1
@<TRIPOS>MOLECULE
*****
 40 43 0 0 0
SMALL
GASTEIGER

@<TRIPOS>ATOM
      1 S         142.0683  138.2225  158.2043 S.O2    1  UNL1        0.0638
      2 O         140.6322  137.8549  158.4334 O.2     1  UNL1       -0.1528
      3 O         143.5044  138.5901  157.9753 O.2     1  UNL1       -0.1528
      4 C         142.4749  139.3383  162.5448 C.ar    1  UNL1        0.1391
      5 C         143.6434  139.4953  161.6174 C.ar    1  UNL1        0.0383
      6 C         143.5079  139.1233  160.1706 C.ar    1  UNL1        0.0230
      7 C         142.2038  138.5944  159.6512 C.ar    1  UNL1        0.1224
      8 C         141.0354  138.4374  160.5785 C.ar    1  UNL1        0.0230
      9 C         141.1709  138.8094  162.0254 C.ar    1  UNL1        0.0383
     10 O         142.6105  139.7102  163.9916 O.3     1  UNL1       -0.4706
     11 C         141.7053  140.7474  164.5874 C.3     1  UNL1        0.2321
     12 C         137.6723  138.4720  166.9450 C.3     1  UNL1        0.0521
     13 C         138.9185  139.3039  167.0164 C.ar    1  UNL1        0.0591
     14 C         139.6888  139.6097  165.7662 C.ar    1  UNL1        0.0141
     15 C         140.9349  140.4416  165.8376 C.ar    1  UNL1        0.0238
     16 C         141.4108  140.9678  167.1593 C.ar    1  UNL1        0.0172
     17 C         142.6569  141.7996  167.2307 C.ar    1  UNL1        0.0013
     18 C         143.1327  142.3258  168.5524 C.ar    1  UNL1        0.0001
     19 C         142.3623  142.0200  169.8026 C.ar    1  UNL1        0.0015
     20 C         141.1162  141.1881  169.7312 C.ar    1  UNL1        0.0191
     21 C         140.6404  140.6620  168.4095 C.ar    1  UNL1        0.0807
     22 N         139.3943  139.8301  168.3381 N.ar    1  UNL1       -0.2497
     23 N         141.9328  137.8505  156.7575 N.3     1  UNL1       -0.1451
     24 C         141.9868  138.9143  155.7014 C.3     1  UNL1        0.1155
     25 C         141.7431  136.4147  156.3668 C.3     1  UNL1        0.1721
     26 C         142.9472  136.0352  157.1768 C.3     1  UNL1        0.1203
     27 N         142.7576  134.5995  156.7861 N.am    1  UNL1       -0.2756
     28 C         143.4750  133.3160  157.0827 C.2     1  UNL1        0.2257
     29 O         144.6871  133.3211  157.9662 O.2     1  UNL1       -0.2749
     30 C         141.5535  134.9790  155.9761 C.3     1  UNL1        0.1203
     31 C         140.5390  136.7942  155.5568 C.2     1  UNL1        0.2620
     32 O         140.6774  137.0610  154.0873 O.2     1  UNL1       -0.2715
     33 N         139.1965  136.9068  156.2164 N.am    1  UNL1       -0.1958
     34 O         137.9924  137.2863  155.4064 O.3     1  UNL1       -0.2951
     35 H         139.1057  136.7316  157.1809 H       1  UNL1        0.1823
     36 H         138.2541  137.4224  154.4824 H       1  UNL1        0.2414
     37 C         142.9801  132.0274  156.4956 C.3     1  UNL1        0.0853
     38 C         143.6223  131.4709  155.2595 C.3     1  UNL1        0.0091
     39 C         144.7691  130.5113  155.3772 C.3     1  UNL1        0.0005
     40 C         143.1176  131.8740  153.9057 C.3     1  UNL1        0.0005
@<TRIPOS>BOND
     1    12    13    1
     2    13    14   ar
     3    14    15   ar
     4    15    11    1
     5    11    10    1
     6    10     4    1
     7     4     5   ar
     8     5     6   ar
     9     6     7   ar
    10     7     1    1
    11     1     2    2
    12     1     3    2
    13     1    23    1
    14    23    24    1
    15    23    25    1
    16    25    31    1
    17    31    32    2
    18    31    33   am
    19    33    34    1
    20    25    26    1
    21    26    27    1
    22    27    28   am
    23    28    29    2
    24    28    37    1
    25    37    38    1
    26    38    39    1
    27    38    40    1
    28    27    30    1
    29     7     8   ar
    30     8     9   ar
    31    15    16   ar
    32    16    17   ar
    33    17    18   ar
    34    18    19   ar
    35    19    20   ar
    36    20    21   ar
    37    21    22   ar
    38    22    13   ar
    39     9     4   ar
    40    21    16   ar
    41    30    25    1
    42    33    35    1
    43    34    36    1
@<TRIPOS>MOLECULE
*****
 40 43 0 0 0
SMALL
GASTEIGER

@<TRIPOS>ATOM
      1 S         142.4406  138.9023  158.8760 S.O2    1  UNL1        0.0638
      2 O         141.0680  138.3743  159.1712 O.2     1  UNL1       -0.1528
      3 O         143.8132  139.4303  158.5808 O.2     1  UNL1       -0.1528
      4 C         143.4186  138.8152  163.2676 C.ar    1  UNL1        0.1391
      5 C         144.1888  139.7132  162.3453 C.ar    1  UNL1        0.0383
      6 C         143.8628  139.7422  160.8815 C.ar    1  UNL1        0.0230
      7 C         142.7666  138.8732  160.3399 C.ar    1  UNL1        0.1224
      8 C         141.9964  137.9754  161.2621 C.ar    1  UNL1        0.0230
      9 C         142.3224  137.9463  162.7260 C.ar    1  UNL1        0.0383
     10 O         143.7446  138.7862  164.7315 O.3     1  UNL1       -0.4706
     11 C         143.2756  139.8947  165.6264 C.3     1  UNL1        0.2321
     12 C         138.1609  139.1438  166.1520 C.3     1  UNL1        0.0521
     13 C         139.3121  140.0295  165.7773 C.ar    1  UNL1        0.0591
     14 C         140.7182  139.5193  165.8892 C.ar    1  UNL1        0.0141
     15 C         141.8694  140.4049  165.5145 C.ar    1  UNL1        0.0238
     16 C         141.6145  141.8008  165.0280 C.ar    1  UNL1        0.0172
     17 C         142.7657  142.6864  164.6533 C.ar    1  UNL1        0.0013
     18 C         142.5108  144.0822  164.1667 C.ar    1  UNL1        0.0001
     19 C         141.1047  144.5923  164.0549 C.ar    1  UNL1        0.0015
     20 C         139.9535  143.7067  164.4295 C.ar    1  UNL1        0.0191
     21 C         140.2084  142.3110  164.9161 C.ar    1  UNL1        0.0807
     22 N         139.0572  141.4253  165.2908 N.ar    1  UNL1       -0.2497
     23 N         142.1146  138.9313  157.4122 N.3     1  UNL1       -0.1451
     24 C         142.2872  140.1997  156.6304 C.3     1  UNL1        0.1155
     25 C         141.6159  137.6918  156.7301 C.3     1  UNL1        0.1721
     26 C         142.7816  136.9221  157.2765 C.3     1  UNL1        0.1203
     27 N         142.2829  135.6827  156.5944 N.am    1  UNL1       -0.2756
     28 C         142.7547  134.2621  156.4985 C.2     1  UNL1        0.2257
     29 O         144.0098  133.8394  157.2028 O.2     1  UNL1       -0.2749
     30 C         141.1172  136.4524  156.0481 C.3     1  UNL1        0.1203
     31 C         140.4501  138.4615  156.1838 C.2     1  UNL1        0.2620
     32 O         140.4597  138.9252  154.7573 O.2     1  UNL1       -0.2715
     33 N         139.2747  138.7676  157.0640 N.am    1  UNL1       -0.1958
     34 O         138.1089  139.5374  156.5177 O.3     1  UNL1       -0.2951
     35 H         139.2683  138.4634  158.0003 H       1  UNL1        0.1823
     36 H         138.2747  139.7587  155.5880 H       1  UNL1        0.2414
     37 C         141.9712  133.2641  155.6983 C.3     1  UNL1        0.0853
     38 C         142.3839  132.9396  154.2932 C.3     1  UNL1        0.0091
     39 C         141.9394  133.8156  153.1596 C.3     1  UNL1        0.0005
     40 C         143.2411  131.7390  154.0216 C.3     1  UNL1        0.0005
@<TRIPOS>BOND
     1    12    13    1
     2    13    14   ar
     3    14    15   ar
     4    15    11    1
     5    11    10    1
     6    10     4    1
     7     4     5   ar
     8     5     6   ar
     9     6     7   ar
    10     7     1    1
    11     1     2    2
    12     1     3    2
    13     1    23    1
    14    23    24    1
    15    23    25    1
    16    25    31    1
    17    31    32    2
    18    31    33   am
    19    33    34    1
    20    25    26    1
    21    26    27    1
    22    27    28   am
    23    28    29    2
    24    28    37    1
    25    37    38    1
    26    38    39    1
    27    38    40    1
    28    27    30    1
    29     7     8   ar
    30     8     9   ar
    31    15    16   ar
    32    16    17   ar
    33    17    18   ar
    34    18    19   ar
    35    19    20   ar
    36    20    21   ar
    37    21    22   ar
    38    22    13   ar
    39     9     4   ar
    40    21    16   ar
    41    30    25    1
    42    33    35    1
    43    34    36    1
@<TRIPOS>MOLECULE
*****
 40 43 0 0 0
SMALL
GASTEIGER

@<TRIPOS>ATOM
      1 S         142.4888  138.9221  158.8827 S.O2    1  UNL1        0.0638
      2 O         141.1168  138.3970  159.1857 O.2     1  UNL1       -0.1528
      3 O         143.8608  139.4473  158.5797 O.2     1  UNL1       -0.1528
      4 C         143.4869  138.8458  163.2700 C.ar    1  UNL1        0.1391
      5 C         142.3746  137.9909  162.7389 C.ar    1  UNL1        0.0383
      6 C         142.0418  138.0164  161.2765 C.ar    1  UNL1        0.0230
      7 C         142.8215  138.8967  160.3451 C.ar    1  UNL1        0.1224
      8 C         143.9337  139.7515  160.8762 C.ar    1  UNL1        0.0230
      9 C         144.2665  139.7261  162.3386 C.ar    1  UNL1        0.0383
     10 O         143.8196  138.8204  164.7324 O.3     1  UNL1       -0.4706
     11 C         143.5130  140.0106  165.5921 C.3     1  UNL1        0.2321
     12 C         142.1492  144.6716  163.7440 C.3     1  UNL1        0.0521
     13 C         141.7670  143.3129  164.2517 C.ar    1  UNL1        0.0591
     14 C         142.8311  142.3411  164.6680 C.ar    1  UNL1        0.0141
     15 C         142.4489  140.9824  165.1758 C.ar    1  UNL1        0.0238
     16 C         141.0025  140.5954  165.2672 C.ar    1  UNL1        0.0172
     17 C         140.6203  139.2367  165.7749 C.ar    1  UNL1        0.0013
     18 C         139.1739  138.8498  165.8663 C.ar    1  UNL1        0.0001
     19 C         138.1098  139.8216  165.4499 C.ar    1  UNL1        0.0015
     20 C         138.4920  141.1803  164.9422 C.ar    1  UNL1        0.0191
     21 C         139.9384  141.5672  164.8508 C.ar    1  UNL1        0.0807
     22 N         140.3206  142.9259  164.3431 N.ar    1  UNL1       -0.2497
     23 N         142.1561  138.9476  157.4203 N.3     1  UNL1       -0.1451
     24 C         142.3230  140.2146  156.6351 C.3     1  UNL1        0.1155
     25 C         141.6564  137.7059  156.7431 C.3     1  UNL1        0.1721
     26 C         142.8301  136.9411  157.2792 C.3     1  UNL1        0.1203
     27 N         142.3304  135.6995  156.6020 N.am    1  UNL1       -0.2756
     28 C         142.8070  134.2807  156.5023 C.2     1  UNL1        0.2257
     29 O         144.0702  133.8634  157.1954 O.2     1  UNL1       -0.2749
     30 C         141.1566  136.4642  156.0659 C.3     1  UNL1        0.1203
     31 C         140.4826  138.4706  156.2070 C.2     1  UNL1        0.2620
     32 O         140.4952  138.9694  154.7924 O.2     1  UNL1       -0.2715
     33 N         139.2962  138.7366  157.0855 N.am    1  UNL1       -0.1958
     34 O         138.1225  139.5014  156.5494 O.3     1  UNL1       -0.2951
     35 H         139.2879  138.4093  158.0140 H       1  UNL1        0.1823
     36 H         138.2915  139.7482  155.6267 H       1  UNL1        0.2414
     37 C         142.0205  133.2793  155.7095 C.3     1  UNL1        0.0853
     38 C         142.3511  133.0390  154.2662 C.3     1  UNL1        0.0091
     39 C         143.0959  131.8008  153.8634 C.3     1  UNL1        0.0005
     40 C         141.9370  134.0369  153.2256 C.3     1  UNL1        0.0005
@<TRIPOS>BOND
     1    12    13    1
     2    13    14   ar
     3    14    15   ar
     4    15    11    1
     5    11    10    1
     6    10     4    1
     7     4     5   ar
     8     5     6   ar
     9     6     7   ar
    10     7     1    1
    11     1     2    2
    12     1     3    2
    13     1    23    1
    14    23    24    1
    15    23    25    1
    16    25    31    1
    17    31    32    2
    18    31    33   am
    19    33    34    1
    20    25    26    1
    21    26    27    1
    22    27    28   am
    23    28    29    2
    24    28    37    1
    25    37    38    1
    26    38    39    1
    27    38    40    1
    28    27    30    1
    29     7     8   ar
    30     8     9   ar
    31    15    16   ar
    32    16    17   ar
    33    17    18   ar
    34    18    19   ar
    35    19    20   ar
    36    20    21   ar
    37    21    22   ar
    38    22    13   ar
    39     9     4   ar
    40    21    16   ar
    41    30    25    1
    42    33    35    1
    43    34    36    1
@<TRIPOS>MOLECULE
*****
 40 43 0 0 0
SMALL
GASTEIGER

@<TRIPOS>ATOM
      1 S         142.0671  139.5045  159.1334 S.O2    1  UNL1        0.0638
      2 O         143.5281  139.1662  159.1011 O.2     1  UNL1       -0.1528
      3 O         140.6061  139.8427  159.1657 O.2     1  UNL1       -0.1528
      4 C         141.2500  136.2627  156.1212 C.ar    1  UNL1        0.1391
      5 C         140.1398  137.1656  156.5711 C.ar    1  UNL1        0.0383
      6 C         140.4122  138.2462  157.5751 C.ar    1  UNL1        0.0230
      7 C         141.7947  138.4239  158.1294 C.ar    1  UNL1        0.1224
      8 C         142.9048  137.5209  157.6795 C.ar    1  UNL1        0.0230
      9 C         142.6324  136.4403  156.6755 C.ar    1  UNL1        0.0383
     10 O         140.9776  135.1821  155.1172 O.3     1  UNL1       -0.4706
     11 C         142.0800  134.2580  154.6922 C.3     1  UNL1        0.2321
     12 C         139.8615  129.5971  154.0968 C.3     1  UNL1        0.0521
     13 C         140.9007  130.4689  154.7372 C.ar    1  UNL1        0.0591
     14 C         140.9708  131.9276  154.3945 C.ar    1  UNL1        0.0141
     15 C         142.0099  132.7994  155.0349 C.ar    1  UNL1        0.0238
     16 C         142.9791  132.2125  156.0180 C.ar    1  UNL1        0.0172
     17 C         144.0183  133.0843  156.6583 C.ar    1  UNL1        0.0013
     18 C         144.9874  132.4975  157.6414 C.ar    1  UNL1        0.0001
     19 C         144.9173  131.0388  157.9841 C.ar    1  UNL1        0.0015
     20 C         143.8781  130.1670  157.3437 C.ar    1  UNL1        0.0191
     21 C         142.9091  130.7539  156.3607 C.ar    1  UNL1        0.0807
     22 N         141.8698  129.8821  155.7203 N.ar    1  UNL1       -0.2497
     23 N         142.3395  140.5851  160.1375 N.3     1  UNL1       -0.1451
     24 C         143.5092  141.5052  159.9503 C.3     1  UNL1        0.1155
     25 C         141.4421  140.7455  161.3287 C.3     1  UNL1        0.1721
     26 C         140.9705  142.0658  160.7957 C.3     1  UNL1        0.1203
     27 N         140.0732  142.2262  161.9870 N.am    1  UNL1       -0.2756
     28 C         139.1052  143.2733  162.4523 C.2     1  UNL1        0.2257
     29 O         138.8819  144.5072  161.6292 O.2     1  UNL1       -0.2749
     30 C         140.5448  140.9058  162.5200 C.3     1  UNL1        0.1203
     31 C         141.9137  139.4251  161.8617 C.2     1  UNL1        0.2620
     32 O         143.3007  139.2927  162.4173 O.2     1  UNL1       -0.2715
     33 N         140.9983  138.2370  161.8392 N.am    1  UNL1       -0.1958
     34 O         141.4699  136.9166  162.3722 O.3     1  UNL1       -0.2951
     35 H         140.0879  138.3238  161.4746 H       1  UNL1        0.1823
     36 H         142.3820  137.0036  162.6906 H       1  UNL1        0.2414
     37 C         138.3605  143.0864  163.7409 C.3     1  UNL1        0.0853
     38 C         138.9301  143.6225  165.0209 C.3     1  UNL1        0.0091
     39 C         138.5072  144.9710  165.5233 C.3     1  UNL1        0.0005
     40 C         139.9227  142.8099  165.7984 C.3     1  UNL1        0.0005
@<TRIPOS>BOND
     1    12    13    1
     2    13    14   ar
     3    14    15   ar
     4    15    11    1
     5    11    10    1
     6    10     4    1
     7     4     5   ar
     8     5     6   ar
     9     6     7   ar
    10     7     1    1
    11     1     2    2
    12     1     3    2
    13     1    23    1
    14    23    24    1
    15    23    25    1
    16    25    31    1
    17    31    32    2
    18    31    33   am
    19    33    34    1
    20    25    26    1
    21    26    27    1
    22    27    28   am
    23    28    29    2
    24    28    37    1
    25    37    38    1
    26    38    39    1
    27    38    40    1
    28    27    30    1
    29     7     8   ar
    30     8     9   ar
    31    15    16   ar
    32    16    17   ar
    33    17    18   ar
    34    18    19   ar
    35    19    20   ar
    36    20    21   ar
    37    21    22   ar
    38    22    13   ar
    39     9     4   ar
    40    21    16   ar
    41    30    25    1
    42    33    35    1
    43    34    36    1
@<TRIPOS>MOLECULE
*****
 40 43 0 0 0
SMALL
GASTEIGER

@<TRIPOS>ATOM
      1 S         142.4731  138.1505  157.7505 S.O2    1  UNL1        0.0638
      2 O         143.8016  138.5016  157.1491 O.2     1  UNL1       -0.1528
      3 O         141.1445  137.7994  158.3520 O.2     1  UNL1       -0.1528
      4 C         143.9208  139.5602  161.7713 C.ar    1  UNL1        0.1391
      5 C         143.8540  140.5192  160.6198 C.ar    1  UNL1        0.0383
      6 C         143.3714  140.0493  159.2795 C.ar    1  UNL1        0.0230
      7 C         142.9556  138.6204  159.0908 C.ar    1  UNL1        0.1224
      8 C         143.0225  137.6615  160.2423 C.ar    1  UNL1        0.0230
      9 C         143.5051  138.1314  161.5826 C.ar    1  UNL1        0.0383
     10 O         144.4034  140.0301  163.1116 O.3     1  UNL1       -0.4706
     11 C         143.4321  140.1965  164.2424 C.3     1  UNL1        0.2321
     12 C         138.2865  140.1566  163.5198 C.3     1  UNL1        0.0521
     13 C         139.5726  140.9156  163.6619 C.ar    1  UNL1        0.0591
     14 C         140.8593  140.1766  163.8811 C.ar    1  UNL1        0.0141
     15 C         142.1453  140.9355  164.0231 C.ar    1  UNL1        0.0238
     16 C         142.1445  142.4336  163.9460 C.ar    1  UNL1        0.0172
     17 C         143.4305  143.1926  164.0880 C.ar    1  UNL1        0.0013
     18 C         143.4297  144.6906  164.0108 C.ar    1  UNL1        0.0001
     19 C         142.1429  145.4296  163.7916 C.ar    1  UNL1        0.0015
     20 C         140.8569  144.6706  163.6495 C.ar    1  UNL1        0.0191
     21 C         140.8578  143.1726  163.7267 C.ar    1  UNL1        0.0807
     22 N         139.5717  142.4136  163.5847 N.ar    1  UNL1       -0.2497
     23 N         141.9905  137.6806  156.4103 N.3     1  UNL1       -0.1451
     24 C         141.7424  138.6723  155.3125 C.3     1  UNL1        0.1155
     25 C         141.7559  136.2190  156.1678 C.3     1  UNL1        0.1721
     26 C         143.0245  135.8940  156.8992 C.3     1  UNL1        0.1203
     27 N         142.7899  134.4325  156.6567 N.am    1  UNL1       -0.2756
     28 C         143.5212  133.1693  157.0025 C.2     1  UNL1        0.2257
     29 O         144.8073  133.2337  157.7718 O.2     1  UNL1       -0.2749
     30 C         141.5214  134.7575  155.9253 C.3     1  UNL1        0.1203
     31 C         140.4874  136.5440  155.4363 C.2     1  UNL1        0.2620
     32 O         140.4532  136.4986  153.9374 O.2     1  UNL1       -0.2715
     33 N         139.2529  136.9143  156.2038 N.am    1  UNL1       -0.1958
     34 O         137.9843  137.2392  155.4723 O.3     1  UNL1       -0.2951
     35 H         139.2753  136.9440  157.1876 H       1  UNL1        0.1823
     36 H         138.1333  137.1630  154.5169 H       1  UNL1        0.2414
     37 C         142.9662  131.8416  156.5789 C.3     1  UNL1        0.0853
     38 C         143.8120  130.6073  156.6840 C.3     1  UNL1        0.0091
     39 C         143.6875  129.7124  157.8814 C.3     1  UNL1        0.0005
     40 C         144.7823  130.2676  155.5917 C.3     1  UNL1        0.0005
@<TRIPOS>BOND
     1    12    13    1
     2    13    14   ar
     3    14    15   ar
     4    15    11    1
     5    11    10    1
     6    10     4    1
     7     4     5   ar
     8     5     6   ar
     9     6     7   ar
    10     7     1    1
    11     1     2    2
    12     1     3    2
    13     1    23    1
    14    23    24    1
    15    23    25    1
    16    25    31    1
    17    31    32    2
    18    31    33   am
    19    33    34    1
    20    25    26    1
    21    26    27    1
    22    27    28   am
    23    28    29    2
    24    28    37    1
    25    37    38    1
    26    38    39    1
    27    38    40    1
    28    27    30    1
    29     7     8   ar
    30     8     9   ar
    31    15    16   ar
    32    16    17   ar
    33    17    18   ar
    34    18    19   ar
    35    19    20   ar
    36    20    21   ar
    37    21    22   ar
    38    22    13   ar
    39     9     4   ar
    40    21    16   ar
    41    30    25    1
    42    33    35    1
    43    34    36    1
