@<TRIPOS>MOLECULE
*****
 28 31 0 0 0
SMALL
GASTEIGER

@<TRIPOS>ATOM
      1 C         139.6703  138.9489  165.0109 C.3     1  UNL1        0.0252
      2 C         139.2260  139.8848  163.9260 C.3     1  UNL1        0.0217
      3 C         139.7269  139.6997  162.5243 C.3     1  UNL1        0.0725
      4 N         140.6721  138.5788  162.2074 N.3     1  UNL1       -0.2712
      5 C         141.1163  137.6431  163.2923 C.3     1  UNL1        0.0725
      6 C         140.6155  137.8281  164.6940 C.3     1  UNL1        0.0217
      7 C         138.1677  139.5041  169.2162 C.ar    1  UNL1        0.1724
      8 C         137.3670  138.7024  168.2333 C.ar    1  UNL1        0.0397
      9 C         137.8679  138.5174  166.8316 C.ar    1  UNL1       -0.0010
     10 C         139.1695  139.1340  166.4127 C.ar    1  UNL1       -0.0192
     11 C         139.9703  139.9358  167.3955 C.ar    1  UNL1        0.0358
     12 C         139.4694  140.1208  168.7973 C.ar    1  UNL1        0.1721
     13 C         136.4731  138.9169  171.0959 C.3     1  UNL1        0.2526
     14 O         137.6669  139.6892  170.6179 O.3     1  UNL1       -0.4684
     15 O         140.2702  140.9226  169.7801 O.3     1  UNL1       -0.4684
     16 C         139.9472  142.3696  170.0074 C.3     1  UNL1        0.2526
     17 C         141.1729  138.3937  160.8057 C.3     1  UNL1        0.0938
     18 C         142.6376  138.5233  160.5094 C.3     1  UNL1        0.1083
     19 N         143.2892  139.8744  160.5241 N.pl3   1  UNL1       -0.3004
     20 C         143.1447  140.7896  159.3446 C.3     1  UNL1        0.1386
     21 C         143.7962  142.1406  159.3593 C.3     1  UNL1        0.2268
     22 O         144.5922  142.5764  160.5536 O.3     1  UNL1       -0.4724
     23 C         144.7368  141.6612  161.7332 C.ar    1  UNL1        0.1518
     24 C         145.5328  142.0970  162.9275 C.ar    1  UNL1        0.0382
     25 C         145.6773  141.1817  164.1071 C.ar    1  UNL1        0.0032
     26 C         145.0257  139.8307  164.0923 C.ar    1  UNL1        0.0015
     27 C         144.2297  139.3949  162.8980 C.ar    1  UNL1        0.0176
     28 C         144.0852  140.3101  161.7185 C.ar    1  UNL1        0.0824
@<TRIPOS>BOND
     1    13    14    1
     2    14     7    1
     3     7     8   ar
     4     8     9   ar
     5     9    10   ar
     6    10     1    1
     7     1     2    1
     8     2     3    1
     9     3     4    1
    10     4    17    1
    11    17    18    1
    12    18    19    1
    13    19    20    1
    14    20    21    1
    15    21    22    1
    16    22    23    1
    17    23    24   ar
    18    24    25   ar
    19    25    26   ar
    20    26    27   ar
    21    27    28   ar
    22     4     5    1
    23     5     6    1
    24    10    11   ar
    25    11    12   ar
    26    12    15    1
    27    15    16    1
    28    12     7   ar
    29     6     1    1
    30    28    19    1
    31    28    23   ar
@<TRIPOS>MOLECULE
*****
 28 31 0 0 0
SMALL
GASTEIGER

@<TRIPOS>ATOM
      1 C         139.0316  139.7642  165.6177 C.3     1  UNL1        0.0252
      2 C         138.2925  140.6080  164.6219 C.3     1  UNL1        0.0217
      3 C         137.9882  140.0644  163.2574 C.3     1  UNL1        0.0725
      4 N         138.4230  138.6768  162.8888 N.3     1  UNL1       -0.2712
      5 C         139.1621  137.8331  163.8846 C.3     1  UNL1        0.0725
      6 C         139.4664  138.3767  165.2491 C.3     1  UNL1        0.0217
      7 C         139.9446  141.3951  169.7112 C.ar    1  UNL1        0.1724
      8 C         140.5483  142.0359  168.4968 C.ar    1  UNL1        0.0397
      9 C         140.2440  141.4923  167.1323 C.ar    1  UNL1       -0.0010
     10 C         139.3360  140.3078  166.9822 C.ar    1  UNL1       -0.0192
     11 C         138.7322  139.6669  168.1967 C.ar    1  UNL1        0.0358
     12 C         139.0366  140.2106  169.5612 C.ar    1  UNL1        0.1721
     13 C         141.6726  142.0782  171.5271 C.3     1  UNL1        0.2526
     14 O         140.2490  141.9388  171.0757 O.3     1  UNL1       -0.4684
     15 O         138.4329  139.5698  170.7756 O.3     1  UNL1       -0.4684
     16 C         136.9771  139.2087  170.7877 C.3     1  UNL1        0.2526
     17 C         138.1186  138.1332  161.5243 C.3     1  UNL1        0.0938
     18 C         139.1088  138.3045  160.4107 C.3     1  UNL1        0.1083
     19 N         139.9952  139.5141  160.3747 N.pl3   1  UNL1       -0.3004
     20 C         139.4933  140.7941  159.7751 C.3     1  UNL1        0.1386
     21 C         140.3797  142.0037  159.7391 C.3     1  UNL1        0.2268
     22 O         141.7680  141.9332  160.3026 O.3     1  UNL1       -0.4724
     23 C         142.2700  140.6531  160.9022 C.ar    1  UNL1        0.1518
     24 C         143.6582  140.5826  161.4658 C.ar    1  UNL1        0.0382
     25 C         144.1601  139.3026  162.0654 C.ar    1  UNL1        0.0032
     26 C         143.2738  138.0930  162.1014 C.ar    1  UNL1        0.0015
     27 C         141.8855  138.1635  161.5378 C.ar    1  UNL1        0.0176
     28 C         141.3836  139.4435  160.9383 C.ar    1  UNL1        0.0824
@<TRIPOS>BOND
     1    13    14    1
     2    14     7    1
     3     7     8   ar
     4     8     9   ar
     5     9    10   ar
     6    10     1    1
     7     1     2    1
     8     2     3    1
     9     3     4    1
    10     4    17    1
    11    17    18    1
    12    18    19    1
    13    19    20    1
    14    20    21    1
    15    21    22    1
    16    22    23    1
    17    23    24   ar
    18    24    25   ar
    19    25    26   ar
    20    26    27   ar
    21    27    28   ar
    22     4     5    1
    23     5     6    1
    24    10    11   ar
    25    11    12   ar
    26    12    15    1
    27    15    16    1
    28    12     7   ar
    29     6     1    1
    30    28    19    1
    31    28    23   ar
@<TRIPOS>MOLECULE
*****
 28 31 0 0 0
SMALL
GASTEIGER

@<TRIPOS>ATOM
      1 C         142.0094  139.0010  164.9179 C.3     1  UNL1        0.0252
      2 C         143.3282  139.4338  164.3491 C.3     1  UNL1        0.0217
      3 C         143.7421  138.9754  162.9822 C.3     1  UNL1        0.0725
      4 N         142.8372  138.0842  162.1840 N.3     1  UNL1       -0.2712
      5 C         141.5184  137.6515  162.7528 C.3     1  UNL1        0.0725
      6 C         141.1045  138.1099  164.1197 C.3     1  UNL1        0.0217
      7 C         140.7676  140.3763  169.0187 C.ar    1  UNL1        0.1724
      8 C         139.7262  140.0097  168.0033 C.ar    1  UNL1        0.0397
      9 C         140.1402  139.5513  166.6363 C.ar    1  UNL1       -0.0010
     10 C         141.5954  139.4594  166.2848 C.ar    1  UNL1       -0.0192
     11 C         142.6369  139.8260  167.3003 C.ar    1  UNL1        0.0358
     12 C         142.2230  140.2844  168.6672 C.ar    1  UNL1        0.1721
     13 C         140.0694  142.2861  170.6358 C.3     1  UNL1        0.2526
     14 O         140.3537  140.8347  170.3856 O.3     1  UNL1       -0.4684
     15 O         143.2644  140.6510  169.6826 O.3     1  UNL1       -0.4684
     16 C         143.7087  142.0770  169.8200 C.3     1  UNL1        0.2526
     17 C         143.2511  137.6258  160.8171 C.3     1  UNL1        0.0938
     18 C         143.0722  138.5326  159.6357 C.3     1  UNL1        0.1083
     19 N         141.7318  138.6437  158.9717 N.pl3   1  UNL1       -0.3004
     20 C         140.7027  139.5912  159.5133 C.3     1  UNL1        0.1386
     21 C         139.3623  139.7023  158.8493 C.3     1  UNL1        0.2268
     22 O         139.0509  138.8659  157.6437 O.3     1  UNL1       -0.4724
     23 C         140.0799  137.9183  157.1021 C.ar    1  UNL1        0.1518
     24 C         139.7685  137.0819  155.8966 C.ar    1  UNL1        0.0382
     25 C         140.7975  136.1344  155.3551 C.ar    1  UNL1        0.0032
     26 C         142.1380  136.0233  156.0191 C.ar    1  UNL1        0.0015
     27 C         142.4494  136.8597  157.2246 C.ar    1  UNL1        0.0176
     28 C         141.4204  137.8072  157.7661 C.ar    1  UNL1        0.0824
@<TRIPOS>BOND
     1    13    14    1
     2    14     7    1
     3     7     8   ar
     4     8     9   ar
     5     9    10   ar
     6    10     1    1
     7     1     2    1
     8     2     3    1
     9     3     4    1
    10     4    17    1
    11    17    18    1
    12    18    19    1
    13    19    20    1
    14    20    21    1
    15    21    22    1
    16    22    23    1
    17    23    24   ar
    18    24    25   ar
    19    25    26   ar
    20    26    27   ar
    21    27    28   ar
    22     4     5    1
    23     5     6    1
    24    10    11   ar
    25    11    12   ar
    26    12    15    1
    27    15    16    1
    28    12     7   ar
    29     6     1    1
    30    28    19    1
    31    28    23   ar
@<TRIPOS>MOLECULE
*****
 28 31 0 0 0
SMALL
GASTEIGER

@<TRIPOS>ATOM
      1 C         142.0191  139.0229  164.8669 C.3     1  UNL1        0.0252
      2 C         141.1422  138.0763  164.1020 C.3     1  UNL1        0.0217
      3 C         141.5503  137.6149  162.7343 C.3     1  UNL1        0.0725
      4 N         142.8354  138.1001  162.1315 N.3     1  UNL1       -0.2712
      5 C         143.7122  139.0467  162.8964 C.3     1  UNL1        0.0725
      6 C         143.3041  139.5081  164.2641 C.3     1  UNL1        0.0217
      7 C         140.7947  140.4072  168.9699 C.ar    1  UNL1        0.1724
      8 C         139.7488  140.0563  167.9535 C.ar    1  UNL1        0.0397
      9 C         140.1569  139.5949  166.5859 C.ar    1  UNL1       -0.0010
     10 C         141.6110  139.4843  166.2345 C.ar    1  UNL1       -0.0192
     11 C         142.6570  139.8352  167.2509 C.ar    1  UNL1        0.0358
     12 C         142.2488  140.2966  168.6185 C.ar    1  UNL1        0.1721
     13 C         139.8995  142.2726  170.5411 C.3     1  UNL1        0.2526
     14 O         140.3866  140.8686  170.3375 O.3     1  UNL1       -0.4684
     15 O         143.2947  140.6475  169.6348 O.3     1  UNL1       -0.4684
     16 C         143.6961  142.0789  169.8344 C.3     1  UNL1        0.2526
     17 C         143.2435  137.6387  160.7638 C.3     1  UNL1        0.0938
     18 C         143.0645  138.5449  159.5821 C.3     1  UNL1        0.1083
     19 N         141.7639  138.5548  158.8348 N.pl3   1  UNL1       -0.3004
     20 C         141.5572  137.6240  157.6769 C.3     1  UNL1        0.1386
     21 C         140.2566  137.6339  156.9296 C.3     1  UNL1        0.2268
     22 O         139.1629  138.5746  157.3401 O.3     1  UNL1       -0.4724
     23 C         139.3696  139.5055  158.4980 C.ar    1  UNL1        0.1518
     24 C         138.2758  140.4463  158.9086 C.ar    1  UNL1        0.0382
     25 C         138.4826  141.3771  160.0665 C.ar    1  UNL1        0.0032
     26 C         139.7831  141.3672  160.8138 C.ar    1  UNL1        0.0015
     27 C         140.8769  140.4265  160.4033 C.ar    1  UNL1        0.0176
     28 C         140.6701  139.4956  159.2454 C.ar    1  UNL1        0.0824
@<TRIPOS>BOND
     1    13    14    1
     2    14     7    1
     3     7     8   ar
     4     8     9   ar
     5     9    10   ar
     6    10     1    1
     7     1     2    1
     8     2     3    1
     9     3     4    1
    10     4    17    1
    11    17    18    1
    12    18    19    1
    13    19    20    1
    14    20    21    1
    15    21    22    1
    16    22    23    1
    17    23    24   ar
    18    24    25   ar
    19    25    26   ar
    20    26    27   ar
    21    27    28   ar
    22     4     5    1
    23     5     6    1
    24    10    11   ar
    25    11    12   ar
    26    12    15    1
    27    15    16    1
    28    12     7   ar
    29     6     1    1
    30    28    19    1
    31    28    23   ar
@<TRIPOS>MOLECULE
*****
 28 31 0 0 0
SMALL
GASTEIGER

@<TRIPOS>ATOM
      1 C         140.3409  139.4163  164.3257 C.3     1  UNL1        0.0252
      2 C         141.2164  139.4364  163.1078 C.3     1  UNL1        0.0217
      3 C         140.5994  139.4339  161.7406 C.3     1  UNL1        0.0725
      4 N         139.1070  139.4112  161.5912 N.3     1  UNL1       -0.2712
      5 C         138.2316  139.3910  162.8091 C.3     1  UNL1        0.0725
      6 C         138.8486  139.3936  164.1764 C.3     1  UNL1        0.0217
      7 C         142.1918  139.4239  168.4274 C.ar    1  UNL1        0.1724
      8 C         143.0450  139.1703  167.2201 C.ar    1  UNL1        0.0397
      9 C         142.4280  139.1677  165.8529 C.ar    1  UNL1       -0.0010
     10 C         140.9579  139.4188  165.6930 C.ar    1  UNL1       -0.0192
     11 C         140.1046  139.6725  166.9003 C.ar    1  UNL1        0.0358
     12 C         140.7216  139.6750  168.2676 C.ar    1  UNL1        0.1721
     13 C         143.2190  140.7219  170.4300 C.3     1  UNL1        0.2526
     14 O         142.8088  139.4265  169.7947 O.3     1  UNL1       -0.4684
     15 O         139.8684  139.9287  169.4749 O.3     1  UNL1       -0.4684
     16 C         139.5938  141.3355  169.9170 C.3     1  UNL1        0.2526
     17 C         138.4900  139.4086  160.2240 C.3     1  UNL1        0.0938
     18 C         138.1096  140.7040  159.5704 C.3     1  UNL1        0.1083
     19 N         139.0718  141.8547  159.5698 N.pl3   1  UNL1       -0.3004
     20 C         140.1106  141.9632  158.4933 C.3     1  UNL1        0.1386
     21 C         141.0728  143.1139  158.4927 C.3     1  UNL1        0.2268
     22 O         140.9962  144.1562  159.5687 O.3     1  UNL1       -0.4724
     23 C         139.9573  144.0478  160.6453 C.ar    1  UNL1        0.1518
     24 C         139.8806  145.0901  161.7212 C.ar    1  UNL1        0.0382
     25 C         138.8417  144.9816  162.7978 C.ar    1  UNL1        0.0032
     26 C         137.8795  143.8309  162.7983 C.ar    1  UNL1        0.0015
     27 C         137.9562  142.7886  161.7224 C.ar    1  UNL1        0.0176
     28 C         138.9951  142.8971  160.6459 C.ar    1  UNL1        0.0824
@<TRIPOS>BOND
     1    13    14    1
     2    14     7    1
     3     7     8   ar
     4     8     9   ar
     5     9    10   ar
     6    10     1    1
     7     1     2    1
     8     2     3    1
     9     3     4    1
    10     4    17    1
    11    17    18    1
    12    18    19    1
    13    19    20    1
    14    20    21    1
    15    21    22    1
    16    22    23    1
    17    23    24   ar
    18    24    25   ar
    19    25    26   ar
    20    26    27   ar
    21    27    28   ar
    22     4     5    1
    23     5     6    1
    24    10    11   ar
    25    11    12   ar
    26    12    15    1
    27    15    16    1
    28    12     7   ar
    29     6     1    1
    30    28    19    1
    31    28    23   ar
@<TRIPOS>MOLECULE
*****
 28 31 0 0 0
SMALL
GASTEIGER

@<TRIPOS>ATOM
      1 C         139.4059  139.8877  165.5057 C.3     1  UNL1        0.0252
      2 C         139.9192  138.5147  165.1867 C.3     1  UNL1        0.0217
      3 C         139.7223  137.9403  163.8151 C.3     1  UNL1        0.0725
      4 N         139.0121  138.7388  162.7625 N.3     1  UNL1       -0.2712
      5 C         138.4988  140.1117  163.0814 C.3     1  UNL1        0.0725
      6 C         138.6957  140.6861  164.4530 C.3     1  UNL1        0.0217
      7 C         139.9966  141.6109  169.6205 C.ar    1  UNL1        0.1724
      8 C         140.5859  142.3015  168.4264 C.ar    1  UNL1        0.0397
      9 C         140.3890  141.7271  167.0548 C.ar    1  UNL1       -0.0010
     10 C         139.6028  140.4621  166.8773 C.ar    1  UNL1       -0.0192
     11 C         139.0135  139.7714  168.0713 C.ar    1  UNL1        0.0358
     12 C         139.2104  140.3458  169.4429 C.ar    1  UNL1        0.1721
     13 C         141.4894  141.9704  171.7163 C.3     1  UNL1        0.2526
     14 O         140.1935  142.1853  170.9920 O.3     1  UNL1       -0.4684
     15 O         138.6211  139.6552  170.6370 O.3     1  UNL1       -0.4684
     16 C         137.1673  139.2861  170.6480 C.3     1  UNL1        0.2526
     17 C         138.8152  138.1644  161.3909 C.3     1  UNL1        0.0938
     18 C         139.7960  138.4756  160.2995 C.3     1  UNL1        0.1083
     19 N         141.2125  138.8301  160.6429 N.pl3   1  UNL1       -0.3004
     20 C         142.1943  137.7491  160.9853 C.3     1  UNL1        0.1386
     21 C         143.6108  138.1036  161.3287 C.3     1  UNL1        0.2268
     22 O         144.0455  139.5392  161.3295 O.3     1  UNL1       -0.4724
     23 C         143.0637  140.6203  160.9870 C.ar    1  UNL1        0.1518
     24 C         143.4984  142.0559  160.9878 C.ar    1  UNL1        0.0382
     25 C         142.5166  143.1370  160.6453 C.ar    1  UNL1        0.0032
     26 C         141.1002  142.7825  160.3020 C.ar    1  UNL1        0.0015
     27 C         140.6654  141.3469  160.3012 C.ar    1  UNL1        0.0176
     28 C         141.6472  140.2658  160.6437 C.ar    1  UNL1        0.0824
@<TRIPOS>BOND
     1    13    14    1
     2    14     7    1
     3     7     8   ar
     4     8     9   ar
     5     9    10   ar
     6    10     1    1
     7     1     2    1
     8     2     3    1
     9     3     4    1
    10     4    17    1
    11    17    18    1
    12    18    19    1
    13    19    20    1
    14    20    21    1
    15    21    22    1
    16    22    23    1
    17    23    24   ar
    18    24    25   ar
    19    25    26   ar
    20    26    27   ar
    21    27    28   ar
    22     4     5    1
    23     5     6    1
    24    10    11   ar
    25    11    12   ar
    26    12    15    1
    27    15    16    1
    28    12     7   ar
    29     6     1    1
    30    28    19    1
    31    28    23   ar
@<TRIPOS>MOLECULE
*****
 28 31 0 0 0
SMALL
GASTEIGER

@<TRIPOS>ATOM
      1 C         139.8335  139.3113  165.1128 C.3     1  UNL1        0.0252
      2 C         139.4756  140.4063  164.1521 C.3     1  UNL1        0.0217
      3 C         139.2396  140.0874  162.7055 C.3     1  UNL1        0.0725
      4 N         139.3616  138.6734  162.2197 N.3     1  UNL1       -0.2712
      5 C         139.7195  137.5785  163.1804 C.3     1  UNL1        0.0725
      6 C         139.9555  137.8975  164.6270 C.3     1  UNL1        0.0217
      7 C         140.5414  140.2682  169.4525 C.ar    1  UNL1        0.1724
      8 C         139.1544  139.9667  168.9676 C.ar    1  UNL1        0.0397
      9 C         138.9185  139.6477  167.5210 C.ar    1  UNL1       -0.0010
     10 C         140.0695  139.6303  166.5594 C.ar    1  UNL1       -0.0192
     11 C         141.4566  139.9318  167.0443 C.ar    1  UNL1        0.0358
     12 C         141.6926  140.2508  168.4909 C.ar    1  UNL1        0.1721
     13 C         140.6583  142.0014  171.3844 C.3     1  UNL1        0.2526
     14 O         140.7774  140.5872  170.8991 O.3     1  UNL1       -0.4684
     15 O         143.0796  140.5523  168.9759 O.3     1  UNL1       -0.4684
     16 C         143.5088  141.9745  169.1835 C.3     1  UNL1        0.2526
     17 C         139.1256  138.3545  160.7731 C.3     1  UNL1        0.0938
     18 C         140.2401  138.5046  159.7805 C.3     1  UNL1        0.1083
     19 N         141.6260  138.8312  160.2525 N.pl3   1  UNL1       -0.3004
     20 C         142.5311  137.7369  160.7355 C.3     1  UNL1        0.1386
     21 C         143.9169  138.0635  161.2075 C.3     1  UNL1        0.2268
     22 O         144.3976  139.4843  161.1966 O.3     1  UNL1       -0.4724
     23 C         143.4925  140.5786  160.7136 C.ar    1  UNL1        0.1518
     24 C         143.9732  141.9994  160.7027 C.ar    1  UNL1        0.0382
     25 C         143.0681  143.0937  160.2197 C.ar    1  UNL1        0.0032
     26 C         141.6823  142.7672  159.7477 C.ar    1  UNL1        0.0015
     27 C         141.2016  141.3463  159.7586 C.ar    1  UNL1        0.0176
     28 C         142.1067  140.2521  160.2416 C.ar    1  UNL1        0.0824
@<TRIPOS>BOND
     1    13    14    1
     2    14     7    1
     3     7     8   ar
     4     8     9   ar
     5     9    10   ar
     6    10     1    1
     7     1     2    1
     8     2     3    1
     9     3     4    1
    10     4    17    1
    11    17    18    1
    12    18    19    1
    13    19    20    1
    14    20    21    1
    15    21    22    1
    16    22    23    1
    17    23    24   ar
    18    24    25   ar
    19    25    26   ar
    20    26    27   ar
    21    27    28   ar
    22     4     5    1
    23     5     6    1
    24    10    11   ar
    25    11    12   ar
    26    12    15    1
    27    15    16    1
    28    12     7   ar
    29     6     1    1
    30    28    19    1
    31    28    23   ar
@<TRIPOS>MOLECULE
*****
 28 31 0 0 0
SMALL
GASTEIGER

@<TRIPOS>ATOM
      1 C         139.9831  143.1989  164.9012 C.3     1  UNL1        0.0252
      2 C         138.7413  143.3956  164.0830 C.3     1  UNL1        0.0217
      3 C         138.7815  144.2533  162.8531 C.3     1  UNL1        0.0725
      4 N         140.0635  144.9145  162.4415 N.3     1  UNL1       -0.2712
      5 C         141.3052  144.7178  163.2596 C.3     1  UNL1        0.0725
      6 C         141.2650  143.8601  164.4895 C.3     1  UNL1        0.0217
      7 C         139.8624  140.6257  168.5909 C.ar    1  UNL1        0.1724
      8 C         140.4910  141.9864  168.6458 C.ar    1  UNL1        0.0397
      9 C         140.5312  142.8442  167.4159 C.ar    1  UNL1       -0.0010
     10 C         139.9429  142.3412  166.1311 C.ar    1  UNL1       -0.0192
     11 C         139.3142  140.9803  166.0762 C.ar    1  UNL1        0.0358
     12 C         139.2740  140.1226  167.3060 C.ar    1  UNL1        0.1721
     13 C         140.5753  140.1831  171.0497 C.3     1  UNL1        0.2526
     14 O         139.8222  139.7679  169.8208 O.3     1  UNL1       -0.4684
     15 O         138.6454  138.7618  167.2511 O.3     1  UNL1       -0.4684
     16 C         138.3281  138.1352  165.9258 C.3     1  UNL1        0.2526
     17 C         140.1038  145.7722  161.2116 C.3     1  UNL1        0.0938
     18 C         140.5354  145.1842  159.9009 C.3     1  UNL1        0.1083
     19 N         140.3950  143.7108  159.6573 N.pl3   1  UNL1       -0.3004
     20 C         139.0788  143.1463  159.2115 C.3     1  UNL1        0.1386
     21 C         138.9385  141.6729  158.9679 C.3     1  UNL1        0.2268
     22 O         140.1144  140.7639  159.1703 O.3     1  UNL1       -0.4724
     23 C         141.4307  141.3284  159.6162 C.ar    1  UNL1        0.1518
     24 C         142.6066  140.4194  159.8185 C.ar    1  UNL1        0.0382
     25 C         143.9228  140.9839  160.2644 C.ar    1  UNL1        0.0032
     26 C         144.0632  142.4573  160.5080 C.ar    1  UNL1        0.0015
     27 C         142.8873  143.3663  160.3056 C.ar    1  UNL1        0.0176
     28 C         141.5710  142.8018  159.8597 C.ar    1  UNL1        0.0824
@<TRIPOS>BOND
     1    13    14    1
     2    14     7    1
     3     7     8   ar
     4     8     9   ar
     5     9    10   ar
     6    10     1    1
     7     1     2    1
     8     2     3    1
     9     3     4    1
    10     4    17    1
    11    17    18    1
    12    18    19    1
    13    19    20    1
    14    20    21    1
    15    21    22    1
    16    22    23    1
    17    23    24   ar
    18    24    25   ar
    19    25    26   ar
    20    26    27   ar
    21    27    28   ar
    22     4     5    1
    23     5     6    1
    24    10    11   ar
    25    11    12   ar
    26    12    15    1
    27    15    16    1
    28    12     7   ar
    29     6     1    1
    30    28    19    1
    31    28    23   ar
@<TRIPOS>MOLECULE
*****
 28 31 0 0 0
SMALL
GASTEIGER

@<TRIPOS>ATOM
      1 C         143.7442  141.5530  162.3550 C.3     1  UNL1        0.0252
      2 C         143.3713  142.8739  162.9604 C.3     1  UNL1        0.0217
      3 C         143.1445  142.9839  164.4390 C.3     1  UNL1        0.0725
      4 N         143.2905  141.7730  165.3123 N.3     1  UNL1       -0.2712
      5 C         143.6634  140.4523  164.7069 C.3     1  UNL1        0.0725
      6 C         143.8902  140.3423  163.2283 C.3     1  UNL1        0.0217
      7 C         144.4246  141.2231  157.9190 C.ar    1  UNL1        0.1724
      8 C         144.7652  142.4950  158.6375 C.ar    1  UNL1        0.0397
      9 C         144.5384  142.6050  160.1161 C.ar    1  UNL1       -0.0010
     10 C         143.9710  141.4431  160.8763 C.ar    1  UNL1       -0.0192
     11 C         143.6304  140.1711  160.1579 C.ar    1  UNL1        0.0358
     12 C         143.8572  140.0611  158.6792 C.ar    1  UNL1        0.1721
     13 C         145.5564  142.0871  155.7459 C.3     1  UNL1        0.2526
     14 O         144.6515  141.1131  156.4403 O.3     1  UNL1       -0.4684
     15 O         143.5167  138.7892  157.9608 O.3     1  UNL1       -0.4684
     16 C         142.5518  137.8174  158.5728 C.3     1  UNL1        0.2526
     17 C         143.0637  141.8830  166.7910 C.3     1  UNL1        0.0938
     18 C         141.6721  141.7998  167.3445 C.3     1  UNL1        0.1083
     19 N         140.5614  141.2466  166.5016 N.pl3   1  UNL1       -0.3004
     20 C         140.3631  139.7632  166.4017 C.3     1  UNL1        0.1386
     21 C         139.2525  139.2100  165.5588 C.3     1  UNL1        0.2268
     22 O         138.3402  140.1403  164.8157 O.3     1  UNL1       -0.4724
     23 C         138.5385  141.6239  164.9156 C.ar    1  UNL1        0.1518
     24 C         137.6262  142.5542  164.1725 C.ar    1  UNL1        0.0382
     25 C         137.8245  144.0376  164.2724 C.ar    1  UNL1        0.0032
     26 C         138.9351  144.5908  165.1153 C.ar    1  UNL1        0.0015
     27 C         139.8474  143.6605  165.8584 C.ar    1  UNL1        0.0176
     28 C         139.6491  142.1770  165.7585 C.ar    1  UNL1        0.0824
@<TRIPOS>BOND
     1    13    14    1
     2    14     7    1
     3     7     8   ar
     4     8     9   ar
     5     9    10   ar
     6    10     1    1
     7     1     2    1
     8     2     3    1
     9     3     4    1
    10     4    17    1
    11    17    18    1
    12    18    19    1
    13    19    20    1
    14    20    21    1
    15    21    22    1
    16    22    23    1
    17    23    24   ar
    18    24    25   ar
    19    25    26   ar
    20    26    27   ar
    21    27    28   ar
    22     4     5    1
    23     5     6    1
    24    10    11   ar
    25    11    12   ar
    26    12    15    1
    27    15    16    1
    28    12     7   ar
    29     6     1    1
    30    28    19    1
    31    28    23   ar
