@<TRIPOS>MOLECULE
*****
 34 37 0 0 0
SMALL
GASTEIGER

@<TRIPOS>ATOM
      1 N         138.4382  138.7639  167.2348 N.pl3   1  UNL1       -0.3414
      2 C         139.0992  138.6751  165.8912 C.ar    1  UNL1        0.1432
      3 N         138.4950  137.8252  164.8129 N.ar    1  UNL1       -0.2265
      4 C         139.1559  137.7364  163.4693 C.ar    1  UNL1        0.1193
      5 C         140.4210  138.4974  163.2040 C.ar    1  UNL1        0.1005
      6 N         141.0251  139.3472  164.2822 N.ar    1  UNL1       -0.2410
      7 C         140.3642  139.4361  165.6259 C.ar    1  UNL1        0.1123
      8 H         137.6079  138.2644  167.4090 H       1  UNL1        0.1438
      9 H         138.8348  139.3217  167.9425 H       1  UNL1        0.1438
     10 C         141.0819  138.4085  161.8604 C.ar    1  UNL1        0.0192
     11 C         140.2996  138.7157  160.6180 C.ar    1  UNL1        0.0017
     12 C         140.9605  138.6269  159.2743 C.ar    1  UNL1        0.0046
     13 C         142.4037  138.2308  159.1731 C.ar    1  UNL1        0.0536
     14 C         143.1860  137.9236  160.4155 C.ar    1  UNL1        0.0046
     15 C         142.5250  138.0124  161.7591 C.ar    1  UNL1        0.0017
     16 C         143.0646  138.1420  157.8295 C.2     1  UNL1        0.2491
     17 O         143.6333  139.3741  157.1905 O.2     1  UNL1       -0.2699
     18 N         143.1568  136.8210  157.1249 N.am    1  UNL1       -0.2735
     19 C         143.7853  136.5785  155.7847 C.3     1  UNL1        0.0964
     20 C         143.6536  135.1181  155.4683 C.3     1  UNL1        0.0525
     21 C         142.9437  134.4580  156.6130 C.3     1  UNL1        0.1320
     22 O         142.6010  133.0014  156.7158 O.3     1  UNL1       -0.3827
     23 C         142.6366  135.5104  157.6368 C.3     1  UNL1        0.1228
     24 H         142.9103  132.5396  155.9209 H       1  UNL1        0.2104
     25 C         140.9684  140.2860  166.7042 C.ar    1  UNL1        0.0204
     26 C         140.4702  141.6834  166.9252 C.ar    1  UNL1        0.0015
     27 C         141.0744  142.5333  168.0034 C.ar    1  UNL1        0.0039
     28 C         142.1768  141.9858  168.8607 C.ar    1  UNL1        0.0714
     29 C         142.6750  140.5883  168.6397 C.ar    1  UNL1        0.0039
     30 C         142.0708  139.7384  167.5614 C.ar    1  UNL1        0.0015
     31 C         142.7810  142.8357  169.9389 C.3     1  UNL1        0.4186
     32 F         143.3852  143.6856  171.0171 F       1  UNL1       -0.1659
     33 F         141.5696  143.7200  169.9206 F       1  UNL1       -0.1659
     34 F         143.9924  141.9513  169.9572 F       1  UNL1       -0.1659
@<TRIPOS>BOND
     1     1     2    1
     2     2     3   ar
     3     3     4   ar
     4     4     5   ar
     5     5    10    1
     6    10    11   ar
     7    11    12   ar
     8    12    13   ar
     9    13    16    1
    10    16    17    2
    11    16    18   am
    12    18    19    1
    13    19    20    1
    14    20    21    1
    15    21    22    1
    16    21    23    1
    17    13    14   ar
    18    14    15   ar
    19     5     6   ar
    20     6     7   ar
    21     7    25    1
    22    25    26   ar
    23    26    27   ar
    24    27    28   ar
    25    28    31    1
    26    31    32    1
    27    31    33    1
    28    31    34    1
    29    28    29   ar
    30    29    30   ar
    31     7     2   ar
    32    30    25   ar
    33    15    10   ar
    34    23    18    1
    35     1     8    1
    36     1     9    1
    37    22    24    1
@<TRIPOS>MOLECULE
*****
 34 37 0 0 0
SMALL
GASTEIGER

@<TRIPOS>ATOM
      1 N         138.4171  138.8122  167.3567 N.pl3   1  UNL1       -0.3414
      2 C         139.0357  138.7409  165.9920 C.ar    1  UNL1        0.1432
      3 N         138.4010  137.9006  164.9238 N.ar    1  UNL1       -0.2265
      4 C         139.0195  137.8293  163.5592 C.ar    1  UNL1        0.1193
      5 C         140.2728  138.5983  163.2627 C.ar    1  UNL1        0.1005
      6 N         140.9075  139.4386  164.3308 N.ar    1  UNL1       -0.2410
      7 C         140.2889  139.5099  165.6955 C.ar    1  UNL1        0.1123
      8 H         137.5946  138.3074  167.5513 H       1  UNL1        0.1438
      9 H         138.8337  139.3637  168.0577 H       1  UNL1        0.1438
     10 C         140.8913  138.5270  161.8980 C.ar    1  UNL1        0.0192
     11 C         140.1232  139.0026  160.7006 C.ar    1  UNL1        0.0017
     12 C         140.7418  138.9313  159.3360 C.ar    1  UNL1        0.0046
     13 C         142.1284  138.3844  159.1687 C.ar    1  UNL1        0.0536
     14 C         142.8965  137.9087  160.3660 C.ar    1  UNL1        0.0046
     15 C         142.2780  137.9800  161.7307 C.ar    1  UNL1        0.0017
     16 C         142.7470  138.3131  157.8040 C.2     1  UNL1        0.2491
     17 O         142.4870  137.1267  156.9237 O.2     1  UNL1       -0.2699
     18 N         143.6255  139.4281  157.3196 N.am    1  UNL1       -0.2735
     19 C         144.3094  139.4961  155.9863 C.3     1  UNL1        0.0964
     20 C         145.0811  140.7811  155.9260 C.3     1  UNL1        0.0525
     21 C         144.8740  141.5073  157.2222 C.3     1  UNL1        0.1320
     22 O         145.4631  142.8361  157.5921 O.3     1  UNL1       -0.3827
     23 C         143.9745  140.6711  158.0834 C.3     1  UNL1        0.1228
     24 H         146.0070  143.1641  156.8590 H       1  UNL1        0.2104
     25 C         140.9237  140.3502  166.7637 C.ar    1  UNL1        0.0204
     26 C         140.4260  141.7423  167.0174 C.ar    1  UNL1        0.0015
     27 C         141.0607  142.5827  168.0855 C.ar    1  UNL1        0.0039
     28 C         142.1931  142.0310  168.9000 C.ar    1  UNL1        0.0714
     29 C         142.6909  140.6389  168.6462 C.ar    1  UNL1        0.0039
     30 C         142.0561  139.7985  167.5780 C.ar    1  UNL1        0.0015
     31 C         142.8278  142.8713  169.9681 C.3     1  UNL1        0.4186
     32 F         143.4625  143.7117  171.0362 F       1  UNL1       -0.1659
     33 F         141.6211  143.7620  169.9844 F       1  UNL1       -0.1659
     34 F         144.0346  141.9806  169.9517 F       1  UNL1       -0.1659
@<TRIPOS>BOND
     1     1     2    1
     2     2     3   ar
     3     3     4   ar
     4     4     5   ar
     5     5    10    1
     6    10    11   ar
     7    11    12   ar
     8    12    13   ar
     9    13    16    1
    10    16    17    2
    11    16    18   am
    12    18    19    1
    13    19    20    1
    14    20    21    1
    15    21    22    1
    16    21    23    1
    17    13    14   ar
    18    14    15   ar
    19     5     6   ar
    20     6     7   ar
    21     7    25    1
    22    25    26   ar
    23    26    27   ar
    24    27    28   ar
    25    28    31    1
    26    31    32    1
    27    31    33    1
    28    31    34    1
    29    28    29   ar
    30    29    30   ar
    31     7     2   ar
    32    30    25   ar
    33    15    10   ar
    34    23    18    1
    35     1     8    1
    36     1     9    1
    37    22    24    1
@<TRIPOS>MOLECULE
*****
 34 37 0 0 0
SMALL
GASTEIGER

@<TRIPOS>ATOM
      1 N         137.0032  142.8203  164.3626 N.pl3   1  UNL1       -0.3414
      2 C         137.9288  142.2640  163.3215 C.ar    1  UNL1        0.1432
      3 N         137.7172  142.5978  161.8745 N.ar    1  UNL1       -0.2265
      4 C         138.6427  142.0416  160.8334 C.ar    1  UNL1        0.1193
      5 C         139.7798  141.1515  161.2392 C.ar    1  UNL1        0.1005
      6 N         139.9914  140.8177  162.6862 N.ar    1  UNL1       -0.2410
      7 C         139.0658  141.3739  163.7273 C.ar    1  UNL1        0.1123
      8 H         136.2569  143.4045  164.0963 H       1  UNL1        0.1438
      9 H         137.1421  142.6012  165.3123 H       1  UNL1        0.1438
     10 C         140.7053  140.5952  160.1981 C.ar    1  UNL1        0.0192
     11 C         141.7399  139.5787  160.5804 C.ar    1  UNL1        0.0017
     12 C         142.6655  139.0224  159.5392 C.ar    1  UNL1        0.0046
     13 C         142.5564  139.4827  158.1158 C.ar    1  UNL1        0.0536
     14 C         141.5218  140.4992  157.7335 C.ar    1  UNL1        0.0046
     15 C         140.5962  141.0555  158.7746 C.ar    1  UNL1        0.0017
     16 C         143.4819  138.9264  157.0746 C.2     1  UNL1        0.2491
     17 O         144.7342  139.6677  156.7113 O.2     1  UNL1       -0.2699
     18 N         143.1551  137.6288  156.3968 N.am    1  UNL1       -0.2735
     19 C         143.9802  136.9526  155.3424 C.3     1  UNL1        0.0964
     20 C         143.2808  135.6854  154.9483 C.3     1  UNL1        0.0525
     21 C         142.0233  135.5786  155.7592 C.3     1  UNL1        0.1320
     22 O         141.0199  134.4661  155.6875 O.3     1  UNL1       -0.3827
     23 C         141.9456  136.7796  156.6544 C.3     1  UNL1        0.1228
     24 H         141.3066  133.8139  155.0292 H       1  UNL1        0.2104
     25 C         139.2775  141.0401  165.1744 C.ar    1  UNL1        0.0204
     26 C         140.1379  141.9223  166.0295 C.ar    1  UNL1        0.0015
     27 C         140.3495  141.5885  167.4765 C.ar    1  UNL1        0.0039
     28 C         139.7007  140.3724  168.0684 C.ar    1  UNL1        0.0714
     29 C         138.8403  139.4902  167.2132 C.ar    1  UNL1        0.0039
     30 C         138.6287  139.8240  165.7661 C.ar    1  UNL1        0.0015
     31 C         139.9123  140.0386  169.5153 C.3     1  UNL1        0.4186
     32 F         140.1240  139.7048  170.9623 F       1  UNL1       -0.1659
     33 F         141.2749  139.5011  169.1920 F       1  UNL1       -0.1659
     34 F         138.5498  140.5761  169.8386 F       1  UNL1       -0.1659
@<TRIPOS>BOND
     1     1     2    1
     2     2     3   ar
     3     3     4   ar
     4     4     5   ar
     5     5    10    1
     6    10    11   ar
     7    11    12   ar
     8    12    13   ar
     9    13    16    1
    10    16    17    2
    11    16    18   am
    12    18    19    1
    13    19    20    1
    14    20    21    1
    15    21    22    1
    16    21    23    1
    17    13    14   ar
    18    14    15   ar
    19     5     6   ar
    20     6     7   ar
    21     7    25    1
    22    25    26   ar
    23    26    27   ar
    24    27    28   ar
    25    28    31    1
    26    31    32    1
    27    31    33    1
    28    31    34    1
    29    28    29   ar
    30    29    30   ar
    31     7     2   ar
    32    30    25   ar
    33    15    10   ar
    34    23    18    1
    35     1     8    1
    36     1     9    1
    37    22    24    1
@<TRIPOS>MOLECULE
*****
 34 37 0 0 0
SMALL
GASTEIGER

@<TRIPOS>ATOM
      1 N         144.6000  137.1112  155.0440 N.pl3   1  UNL1       -0.3414
      2 C         143.7253  137.7817  156.0614 C.ar    1  UNL1        0.1432
      3 N         143.8856  139.2470  156.3393 N.ar    1  UNL1       -0.2265
      4 C         143.0109  139.9176  157.3567 C.ar    1  UNL1        0.1193
      5 C         141.9759  139.1228  158.0964 C.ar    1  UNL1        0.1005
      6 N         141.8156  137.6575  157.8186 N.ar    1  UNL1       -0.2410
      7 C         142.6903  136.9870  156.8011 C.ar    1  UNL1        0.1123
      8 H         145.2793  137.6328  154.5585 H       1  UNL1        0.1438
      9 H         144.4948  136.1495  154.8616 H       1  UNL1        0.1438
     10 C         141.1011  139.7934  159.1139 C.ar    1  UNL1        0.0192
     11 C         140.2784  140.9861  158.7262 C.ar    1  UNL1        0.0017
     12 C         139.4037  141.6566  159.7436 C.ar    1  UNL1        0.0046
     13 C         139.3517  141.1344  161.1488 C.ar    1  UNL1        0.0536
     14 C         140.1745  139.9417  161.5365 C.ar    1  UNL1        0.0046
     15 C         141.0492  139.2711  160.5190 C.ar    1  UNL1        0.0017
     16 C         138.4770  141.8050  162.1663 C.2     1  UNL1        0.2491
     17 O         137.0953  141.2832  162.4280 O.2     1  UNL1       -0.2699
     18 N         138.9840  142.9973  162.9221 N.am    1  UNL1       -0.2735
     19 C         138.2281  143.7676  163.9638 C.3     1  UNL1        0.0964
     20 C         139.1129  144.8752  164.4544 C.3     1  UNL1        0.0525
     21 C         140.4157  144.7893  163.7158 C.3     1  UNL1        0.1320
     22 O         141.5916  145.7034  163.8931 O.3     1  UNL1       -0.3827
     23 C         140.3360  143.6287  162.7688 C.3     1  UNL1        0.1228
     24 H         141.3842  146.3701  164.5665 H       1  UNL1        0.2104
     25 C         142.5300  135.5217  156.5233 C.ar    1  UNL1        0.0204
     26 C         143.3331  134.5192  157.2979 C.ar    1  UNL1        0.0015
     27 C         143.1728  133.0539  157.0202 C.ar    1  UNL1        0.0039
     28 C         142.2094  132.5910  155.9677 C.ar    1  UNL1        0.0714
     29 C         141.4062  133.5935  155.1931 C.ar    1  UNL1        0.0039
     30 C         141.5666  135.0588  155.4709 C.ar    1  UNL1        0.0015
     31 C         142.0491  131.1257  155.6900 C.3     1  UNL1        0.4186
     32 F         141.8888  129.6604  155.4122 F       1  UNL1       -0.1659
     33 F         143.3578  130.8536  156.3704 F       1  UNL1       -0.1659
     34 F         140.7403  131.3979  155.0095 F       1  UNL1       -0.1659
@<TRIPOS>BOND
     1     1     2    1
     2     2     3   ar
     3     3     4   ar
     4     4     5   ar
     5     5    10    1
     6    10    11   ar
     7    11    12   ar
     8    12    13   ar
     9    13    16    1
    10    16    17    2
    11    16    18   am
    12    18    19    1
    13    19    20    1
    14    20    21    1
    15    21    22    1
    16    21    23    1
    17    13    14   ar
    18    14    15   ar
    19     5     6   ar
    20     6     7   ar
    21     7    25    1
    22    25    26   ar
    23    26    27   ar
    24    27    28   ar
    25    28    31    1
    26    31    32    1
    27    31    33    1
    28    31    34    1
    29    28    29   ar
    30    29    30   ar
    31     7     2   ar
    32    30    25   ar
    33    15    10   ar
    34    23    18    1
    35     1     8    1
    36     1     9    1
    37    22    24    1
@<TRIPOS>MOLECULE
*****
 34 37 0 0 0
SMALL
GASTEIGER

@<TRIPOS>ATOM
      1 N         137.9251  144.0136  164.6512 N.pl3   1  UNL1       -0.3414
      2 C         138.1970  143.1034  163.4903 C.ar    1  UNL1        0.1432
      3 N         137.8745  143.5504  162.0953 N.ar    1  UNL1       -0.2265
      4 C         138.1464  142.6402  160.9344 C.ar    1  UNL1        0.1193
      5 C         138.7407  141.2831  161.1685 C.ar    1  UNL1        0.1005
      6 N         139.0632  140.8361  162.5636 N.ar    1  UNL1       -0.2410
      7 C         138.7914  141.7463  163.7245 C.ar    1  UNL1        0.1123
      8 H         137.5350  144.9044  164.4975 H       1  UNL1        0.1438
      9 H         138.1368  143.7202  165.5668 H       1  UNL1        0.1438
     10 C         139.0126  140.3729  160.0076 C.ar    1  UNL1        0.0192
     11 C         138.6627  140.8081  158.6155 C.ar    1  UNL1        0.0017
     12 C         138.9346  139.8979  157.4546 C.ar    1  UNL1        0.0046
     13 C         139.5564  138.5526  157.6859 C.ar    1  UNL1        0.0536
     14 C         139.9062  138.1175  159.0780 C.ar    1  UNL1        0.0046
     15 C         139.6344  139.0276  160.2389 C.ar    1  UNL1        0.0017
     16 C         139.8282  137.6424  156.5250 C.2     1  UNL1        0.2491
     17 O         138.7084  136.8566  155.9097 O.2     1  UNL1       -0.2699
     18 N         141.2199  137.5180  155.9793 N.am    1  UNL1       -0.2735
     19 C         141.6418  136.6528  154.8289 C.3     1  UNL1        0.0964
     20 C         143.1168  136.8371  154.6269 C.3     1  UNL1        0.0525
     21 C         143.6063  137.8163  155.6523 C.3     1  UNL1        0.1320
     22 O         145.0199  138.2912  155.8136 O.3     1  UNL1       -0.3827
     23 C         142.4340  138.2371  156.4882 C.3     1  UNL1        0.1228
     24 H         145.5819  137.8660  155.1471 H       1  UNL1        0.2104
     25 C         139.1139  141.2993  165.1196 C.ar    1  UNL1        0.0204
     26 C         138.4805  140.0580  165.6746 C.ar    1  UNL1        0.0015
     27 C         138.8030  139.6110  167.0697 C.ar    1  UNL1        0.0039
     28 C         139.7589  140.4052  167.9097 C.ar    1  UNL1        0.0714
     29 C         140.3923  141.6465  167.3546 C.ar    1  UNL1        0.0039
     30 C         140.0697  142.0935  165.9595 C.ar    1  UNL1        0.0015
     31 C         140.0814  139.9581  169.3047 C.3     1  UNL1        0.4186
     32 F         140.4039  139.5111  170.6997 F       1  UNL1       -0.1659
     33 F         141.4475  139.5342  168.8530 F       1  UNL1       -0.1659
     34 F         138.7153  140.3821  169.7563 F       1  UNL1       -0.1659
@<TRIPOS>BOND
     1     1     2    1
     2     2     3   ar
     3     3     4   ar
     4     4     5   ar
     5     5    10    1
     6    10    11   ar
     7    11    12   ar
     8    12    13   ar
     9    13    16    1
    10    16    17    2
    11    16    18   am
    12    18    19    1
    13    19    20    1
    14    20    21    1
    15    21    22    1
    16    21    23    1
    17    13    14   ar
    18    14    15   ar
    19     5     6   ar
    20     6     7   ar
    21     7    25    1
    22    25    26   ar
    23    26    27   ar
    24    27    28   ar
    25    28    31    1
    26    31    32    1
    27    31    33    1
    28    31    34    1
    29    28    29   ar
    30    29    30   ar
    31     7     2   ar
    32    30    25   ar
    33    15    10   ar
    34    23    18    1
    35     1     8    1
    36     1     9    1
    37    22    24    1
@<TRIPOS>MOLECULE
*****
 34 37 0 0 0
SMALL
GASTEIGER

@<TRIPOS>ATOM
      1 N         138.5117  139.3082  167.9904 N.pl3   1  UNL1       -0.3414
      2 C         139.0586  139.2253  166.5961 C.ar    1  UNL1        0.1432
      3 N         138.3475  138.4077  165.5589 N.ar    1  UNL1       -0.2265
      4 C         138.8944  138.3248  164.1646 C.ar    1  UNL1        0.1193
      5 C         140.1525  139.0595  163.8076 C.ar    1  UNL1        0.1005
      6 N         140.8636  139.8771  164.8448 N.ar    1  UNL1       -0.2410
      7 C         140.3167  139.9600  166.2391 C.ar    1  UNL1        0.1123
      8 H         137.6859  138.8260  168.2247 H       1  UNL1        0.1438
      9 H         138.9784  139.8448  168.6712 H       1  UNL1        0.1438
     10 C         140.6994  138.9766  162.4133 C.ar    1  UNL1        0.0192
     11 C         141.5857  137.8314  162.0222 C.ar    1  UNL1        0.0017
     12 C         142.1327  137.7485  160.6280 C.ar    1  UNL1        0.0046
     13 C         141.7933  138.8108  159.6248 C.ar    1  UNL1        0.0536
     14 C         140.9070  139.9560  160.0159 C.ar    1  UNL1        0.0046
     15 C         140.3601  140.0389  161.4102 C.ar    1  UNL1        0.0017
     16 C         142.3403  138.7279  158.2305 C.2     1  UNL1        0.2491
     17 O         143.7694  139.0961  157.9624 O.2     1  UNL1       -0.2699
     18 N         141.4581  138.2768  157.1044 N.am    1  UNL1       -0.2735
     19 C         141.8625  138.1449  155.6660 C.3     1  UNL1        0.0964
     20 C         140.6709  137.6649  154.8915 C.3     1  UNL1        0.0525
     21 C         139.5300  137.5002  155.8513 C.3     1  UNL1        0.1320
     22 O         138.1457  137.0384  155.5045 O.3     1  UNL1       -0.3827
     23 C         140.0164  137.8783  157.2189 C.3     1  UNL1        0.1228
     24 H         138.0939  136.8585  154.5527 H       1  UNL1        0.2104
     25 C         141.0278  140.7776  167.2763 C.ar    1  UNL1        0.0204
     26 C         140.7163  142.2374  167.4238 C.ar    1  UNL1        0.0015
     27 C         141.4274  143.0551  168.4609 C.ar    1  UNL1        0.0039
     28 C         142.4501  142.4128  169.3507 C.ar    1  UNL1        0.0714
     29 C         142.7616  140.9529  169.2033 C.ar    1  UNL1        0.0039
     30 C         142.0505  140.1353  168.1661 C.ar    1  UNL1        0.0015
     31 C         143.1613  143.2304  170.3879 C.3     1  UNL1        0.4186
     32 F         143.8724  144.0480  171.4251 F       1  UNL1       -0.1659
     33 F         141.8640  143.8839  170.7621 F       1  UNL1       -0.1659
     34 F         144.4585  142.5769  170.0137 F       1  UNL1       -0.1659
@<TRIPOS>BOND
     1     1     2    1
     2     2     3   ar
     3     3     4   ar
     4     4     5   ar
     5     5    10    1
     6    10    11   ar
     7    11    12   ar
     8    12    13   ar
     9    13    16    1
    10    16    17    2
    11    16    18   am
    12    18    19    1
    13    19    20    1
    14    20    21    1
    15    21    22    1
    16    21    23    1
    17    13    14   ar
    18    14    15   ar
    19     5     6   ar
    20     6     7   ar
    21     7    25    1
    22    25    26   ar
    23    26    27   ar
    24    27    28   ar
    25    28    31    1
    26    31    32    1
    27    31    33    1
    28    31    34    1
    29    28    29   ar
    30    29    30   ar
    31     7     2   ar
    32    30    25   ar
    33    15    10   ar
    34    23    18    1
    35     1     8    1
    36     1     9    1
    37    22    24    1
@<TRIPOS>MOLECULE
*****
 34 37 0 0 0
SMALL
GASTEIGER

@<TRIPOS>ATOM
      1 N         141.1107  136.6508  164.3938 N.pl3   1  UNL1       -0.3414
      2 C         141.1367  137.8264  163.4624 C.ar    1  UNL1        0.1432
      3 N         141.2681  137.6092  161.9841 N.ar    1  UNL1       -0.2265
      4 C         141.2940  138.7847  161.0527 C.ar    1  UNL1        0.1193
      5 C         141.1885  140.1774  161.5997 C.ar    1  UNL1        0.1005
      6 N         141.0571  140.3946  163.0780 N.ar    1  UNL1       -0.2410
      7 C         141.0312  139.2191  164.0094 C.ar    1  UNL1        0.1123
      8 H         141.1800  135.7367  164.0348 H       1  UNL1        0.1438
      9 H         141.0245  136.7934  165.3641 H       1  UNL1        0.1438
     10 C         141.2144  141.3530  160.6683 C.ar    1  UNL1        0.0192
     11 C         140.6027  142.6564  161.0885 C.ar    1  UNL1        0.0017
     12 C         140.6286  143.8320  160.1572 C.ar    1  UNL1        0.0046
     13 C         141.2663  143.7040  158.8056 C.ar    1  UNL1        0.0536
     14 C         141.8781  142.4006  158.3853 C.ar    1  UNL1        0.0046
     15 C         141.8522  141.2250  159.3167 C.ar    1  UNL1        0.0017
     16 C         141.2922  144.8796  157.8742 C.2     1  UNL1        0.2491
     17 O         142.4336  145.8514  157.9247 O.2     1  UNL1       -0.2699
     18 N         140.1768  145.0832  156.8923 N.am    1  UNL1       -0.2735
     19 C         140.0663  146.2060  155.9037 C.3     1  UNL1        0.0964
     20 C         138.7971  146.0165  155.1269 C.3     1  UNL1        0.0525
     21 C         138.1231  144.7767  155.6355 C.3     1  UNL1        0.1320
     22 O         136.8245  144.2127  155.1401 O.3     1  UNL1       -0.3827
     23 C         138.9757  144.1999  156.7265 C.3     1  UNL1        0.1228
     24 H         136.4773  144.7756  154.4306 H       1  UNL1        0.2104
     25 C         140.8997  139.4363  165.4878 C.ar    1  UNL1        0.0204
     26 C         139.5428  139.6131  166.1021 C.ar    1  UNL1        0.0015
     27 C         139.4113  139.8303  167.5805 C.ar    1  UNL1        0.0039
     28 C         140.6368  139.8707  168.4445 C.ar    1  UNL1        0.0714
     29 C         141.9938  139.6939  167.8302 C.ar    1  UNL1        0.0039
     30 C         142.1252  139.4767  166.3518 C.ar    1  UNL1        0.0015
     31 C         140.5054  140.0879  169.9228 C.3     1  UNL1        0.4186
     32 F         140.3739  140.3051  171.4012 F       1  UNL1       -0.1659
     33 F         139.3734  141.0422  169.6820 F       1  UNL1       -0.1659
     34 F         141.6373  139.1337  170.1637 F       1  UNL1       -0.1659
@<TRIPOS>BOND
     1     1     2    1
     2     2     3   ar
     3     3     4   ar
     4     4     5   ar
     5     5    10    1
     6    10    11   ar
     7    11    12   ar
     8    12    13   ar
     9    13    16    1
    10    16    17    2
    11    16    18   am
    12    18    19    1
    13    19    20    1
    14    20    21    1
    15    21    22    1
    16    21    23    1
    17    13    14   ar
    18    14    15   ar
    19     5     6   ar
    20     6     7   ar
    21     7    25    1
    22    25    26   ar
    23    26    27   ar
    24    27    28   ar
    25    28    31    1
    26    31    32    1
    27    31    33    1
    28    31    34    1
    29    28    29   ar
    30    29    30   ar
    31     7     2   ar
    32    30    25   ar
    33    15    10   ar
    34    23    18    1
    35     1     8    1
    36     1     9    1
    37    22    24    1
@<TRIPOS>MOLECULE
*****
 34 37 0 0 0
SMALL
GASTEIGER

@<TRIPOS>ATOM
      1 N         144.1441  137.2232  154.7346 N.pl3   1  UNL1       -0.3414
      2 C         143.6578  137.7545  156.0504 C.ar    1  UNL1        0.1432
      3 N         143.9156  139.1843  156.4234 N.ar    1  UNL1       -0.2265
      4 C         143.4293  139.7156  157.7391 C.ar    1  UNL1        0.1193
      5 C         142.6852  138.8170  158.6819 C.ar    1  UNL1        0.1005
      6 N         142.4274  137.3872  158.3090 N.ar    1  UNL1       -0.2410
      7 C         142.9138  136.8559  156.9932 C.ar    1  UNL1        0.1123
      8 H         144.6325  137.8130  154.1158 H       1  UNL1        0.1438
      9 H         143.9750  136.2848  154.4898 H       1  UNL1        0.1438
     10 C         142.1989  139.3483  159.9977 C.ar    1  UNL1        0.0192
     11 C         140.9022  138.8587  160.5711 C.ar    1  UNL1        0.0017
     12 C         140.4159  139.3899  161.8869 C.ar    1  UNL1        0.0046
     13 C         141.2262  140.4108  162.6293 C.ar    1  UNL1        0.0536
     14 C         142.5229  140.9003  162.0558 C.ar    1  UNL1        0.0046
     15 C         143.0092  140.3691  160.7401 C.ar    1  UNL1        0.0017
     16 C         140.7399  140.9420  163.9450 C.2     1  UNL1        0.2491
     17 O         141.2286  140.3340  165.2262 O.2     1  UNL1       -0.2699
     18 N         139.7649  142.0813  163.9797 N.am    1  UNL1       -0.2735
     19 C         139.1929  142.7151  165.2130 C.3     1  UNL1        0.0964
     20 C         138.2650  143.8124  164.7826 C.3     1  UNL1        0.0525
     21 C         138.2636  143.8568  163.2832 C.3     1  UNL1        0.1320
     22 O         137.4740  144.8045  162.4299 O.3     1  UNL1       -0.3827
     23 C         139.1905  142.7869  162.7870 C.3     1  UNL1        0.1228
     24 H         136.9550  145.3952  162.9979 H       1  UNL1        0.2104
     25 C         142.6560  135.4260  156.6202 C.ar    1  UNL1        0.0204
     26 C         141.6169  135.0953  155.5902 C.ar    1  UNL1        0.0015
     27 C         141.3591  133.6655  155.2172 C.ar    1  UNL1        0.0039
     28 C         142.1404  132.5663  155.8743 C.ar    1  UNL1        0.0714
     29 C         143.1794  132.8971  156.9044 C.ar    1  UNL1        0.0039
     30 C         143.4372  134.3270  157.2773 C.ar    1  UNL1        0.0015
     31 C         141.8826  131.1365  155.5013 C.3     1  UNL1        0.4186
     32 F         141.6247  129.7067  155.1284 F       1  UNL1       -0.1659
     33 F         140.4989  131.5030  155.0528 F       1  UNL1       -0.1659
     34 F         143.2662  130.7701  155.9499 F       1  UNL1       -0.1659
@<TRIPOS>BOND
     1     1     2    1
     2     2     3   ar
     3     3     4   ar
     4     4     5   ar
     5     5    10    1
     6    10    11   ar
     7    11    12   ar
     8    12    13   ar
     9    13    16    1
    10    16    17    2
    11    16    18   am
    12    18    19    1
    13    19    20    1
    14    20    21    1
    15    21    22    1
    16    21    23    1
    17    13    14   ar
    18    14    15   ar
    19     5     6   ar
    20     6     7   ar
    21     7    25    1
    22    25    26   ar
    23    26    27   ar
    24    27    28   ar
    25    28    31    1
    26    31    32    1
    27    31    33    1
    28    31    34    1
    29    28    29   ar
    30    29    30   ar
    31     7     2   ar
    32    30    25   ar
    33    15    10   ar
    34    23    18    1
    35     1     8    1
    36     1     9    1
    37    22    24    1
@<TRIPOS>MOLECULE
*****
 34 37 0 0 0
SMALL
GASTEIGER

@<TRIPOS>ATOM
      1 N         137.7472  143.9399  164.7193 N.pl3   1  UNL1       -0.3414
      2 C         138.5965  143.3320  163.6427 C.ar    1  UNL1        0.1432
      3 N         138.4949  143.8353  162.2333 N.ar    1  UNL1       -0.2265
      4 C         139.3442  143.2274  161.1567 C.ar    1  UNL1        0.1193
      5 C         140.2952  142.1162  161.4895 C.ar    1  UNL1        0.1005
      6 N         140.3969  141.6129  162.8988 N.ar    1  UNL1       -0.2410
      7 C         139.5475  142.2208  163.9754 C.ar    1  UNL1        0.1123
      8 H         137.1231  144.6693  164.5009 H       1  UNL1        0.1438
      9 H         137.8140  143.6096  165.6443 H       1  UNL1        0.1438
     10 C         141.1445  141.5083  160.4128 C.ar    1  UNL1        0.0192
     11 C         142.4312  140.8246  160.7690 C.ar    1  UNL1        0.0017
     12 C         143.2805  140.2167  159.6924 C.ar    1  UNL1        0.0046
     13 C         142.8431  140.2925  158.2596 C.ar    1  UNL1        0.0536
     14 C         141.5564  140.9762  157.9034 C.ar    1  UNL1        0.0046
     15 C         140.7071  141.5841  158.9801 C.ar    1  UNL1        0.0017
     16 C         143.6925  139.6845  157.1830 C.2     1  UNL1        0.2491
     17 O         143.4286  138.2818  156.7219 O.2     1  UNL1       -0.2699
     18 N         144.8057  140.4794  156.5675 N.am    1  UNL1       -0.2735
     19 C         145.7335  140.0074  155.4874 C.3     1  UNL1        0.0964
     20 C         146.6878  141.1222  155.1763 C.3     1  UNL1        0.0525
     21 C         146.3498  142.2830  156.0641 C.3     1  UNL1        0.1320
     22 O         147.0517  143.6084  156.0880 O.3     1  UNL1       -0.3827
     23 C         145.1866  141.8858  156.9239 C.3     1  UNL1        0.1228
     24 H         147.7687  143.6063  155.4346 H       1  UNL1        0.2104
     25 C         139.6492  141.7174  165.3848 C.ar    1  UNL1        0.0204
     26 C         140.3504  142.5388  166.4258 C.ar    1  UNL1        0.0015
     27 C         140.4522  142.0355  167.8351 C.ar    1  UNL1        0.0039
     28 C         139.8527  140.7108  168.2036 C.ar    1  UNL1        0.0714
     29 C         139.1515  139.8894  167.1626 C.ar    1  UNL1        0.0039
     30 C         139.0498  140.3927  165.7532 C.ar    1  UNL1        0.0015
     31 C         139.9544  140.2075  169.6129 C.3     1  UNL1        0.4186
     32 F         140.0561  139.7042  171.0223 F       1  UNL1       -0.1659
     33 F         138.7019  140.9519  169.9692 F       1  UNL1       -0.1659
     34 F         141.2069  139.4630  169.2567 F       1  UNL1       -0.1659
@<TRIPOS>BOND
     1     1     2    1
     2     2     3   ar
     3     3     4   ar
     4     4     5   ar
     5     5    10    1
     6    10    11   ar
     7    11    12   ar
     8    12    13   ar
     9    13    16    1
    10    16    17    2
    11    16    18   am
    12    18    19    1
    13    19    20    1
    14    20    21    1
    15    21    22    1
    16    21    23    1
    17    13    14   ar
    18    14    15   ar
    19     5     6   ar
    20     6     7   ar
    21     7    25    1
    22    25    26   ar
    23    26    27   ar
    24    27    28   ar
    25    28    31    1
    26    31    32    1
    27    31    33    1
    28    31    34    1
    29    28    29   ar
    30    29    30   ar
    31     7     2   ar
    32    30    25   ar
    33    15    10   ar
    34    23    18    1
    35     1     8    1
    36     1     9    1
    37    22    24    1
