@<TRIPOS>MOLECULE
*****
 33 36 0 0 0
SMALL
GASTEIGER

@<TRIPOS>ATOM
      1 N         140.5368  141.7355  167.7934 N.ar    1  UNL1       -0.2399
      2 N         140.3616  142.0271  166.3325 N.ar    1  UNL1       -0.1681
      3 C         139.5185  140.9371  165.7401 C.ar    1  UNL1        0.1094
      4 C         139.1725  139.9718  166.8348 C.ar    1  UNL1        0.1032
      5 C         139.8019  140.4652  168.1039 C.ar    1  UNL1        0.1280
      6 N         139.7121  139.8044  169.4475 N.pl3   1  UNL1       -0.3427
      7 H         139.2034  138.9680  169.5517 H       1  UNL1        0.1437
      8 H         140.1619  140.2071  170.2252 H       1  UNL1        0.1437
      9 C         139.0955  140.8310  164.3048 C.ar    1  UNL1        0.0387
     10 C         137.7503  141.3406  163.8797 C.ar    1  UNL1        0.1003
     11 N         137.3275  141.2345  162.4445 N.ar    1  UNL1       -0.2437
     12 C         138.2498  140.6188  161.4344 C.ar    1  UNL1        0.0843
     13 C         137.8268  140.5127  159.9991 C.ar    1  UNL1        0.0560
     14 C         138.7491  139.8970  158.9890 C.ar    1  UNL1        0.1399
     15 C         140.0943  139.3874  159.4142 C.ar    1  UNL1        0.0370
     16 C         140.5172  139.4935  160.8494 C.ar    1  UNL1        0.0046
     17 C         139.5949  140.1092  161.8595 C.ar    1  UNL1        0.0179
     18 C         140.0178  140.2153  163.2947 C.ar    1  UNL1        0.0046
     19 O         138.3262  139.7909  157.5538 O.3     1  UNL1       -0.4791
     20 C         137.4386  140.8409  156.9539 C.3     1  UNL1        0.1661
     21 C         136.1722  141.2217  156.2459 C.3     1  UNL1        0.0472
     22 C         137.1677  142.2785  156.6227 C.3     1  UNL1        0.0472
     23 C         138.3429  138.7309  166.6866 C.2     1  UNL1        0.2470
     24 N         138.5460  137.8295  165.5051 N.am    1  UNL1       -0.3252
     25 O         137.3101  138.3914  167.7202 O.2     1  UNL1       -0.2702
     26 H         139.2239  138.0523  164.8267 H       1  UNL1        0.1453
     27 H         138.0015  137.0151  165.4079 H       1  UNL1        0.1453
     28 C         142.7994  142.4136  168.8755 C.3     1  UNL1        0.0265
     29 C         141.3109  142.5680  168.7720 C.3     1  UNL1        0.1091
     30 C         140.5966  143.5548  169.6472 C.3     1  UNL1        0.0561
     31 C         139.7964  143.0742  170.8214 C.3     1  UNL1        0.1392
     32 O         140.3938  142.0915  171.7843 O.3     1  UNL1       -0.3819
     33 H         140.5430  141.2461  171.3327 H       1  UNL1        0.2104
@<TRIPOS>BOND
     1    28    29    1
     2    29    30    1
     3    30    31    1
     4    31    32    1
     5    29     1    1
     6     1     2   ar
     7     2     3   ar
     8     3     9    1
     9     9    10   ar
    10    10    11   ar
    11    11    12   ar
    12    12    13   ar
    13    13    14   ar
    14    14    19    1
    15    19    20    1
    16    20    21    1
    17    21    22    1
    18    14    15   ar
    19    15    16   ar
    20    16    17   ar
    21    17    18   ar
    22     3     4   ar
    23     4    23    1
    24    23    24   am
    25    23    25    2
    26     4     5   ar
    27     5     6    1
    28     5     1   ar
    29    18     9   ar
    30    17    12   ar
    31    22    20    1
    32    32    33    1
    33    24    26    1
    34    24    27    1
    35     6     7    1
    36     6     8    1
@<TRIPOS>MOLECULE
*****
 33 36 0 0 0
SMALL
GASTEIGER

@<TRIPOS>ATOM
      1 N         140.4309  141.7797  168.8275 N.ar    1  UNL1       -0.2399
      2 N         141.0319  142.6115  167.7336 N.ar    1  UNL1       -0.1681
      3 C         140.6528  141.9941  166.4202 C.ar    1  UNL1        0.1094
      4 C         139.8175  140.7806  166.7024 C.ar    1  UNL1        0.1032
      5 C         139.6803  140.6481  168.1902 C.ar    1  UNL1        0.1280
      6 N         138.9251  139.5728  168.9137 N.pl3   1  UNL1       -0.3427
      7 H         138.4618  138.8689  168.4046 H       1  UNL1        0.1437
      8 H         138.8927  139.5709  169.8976 H       1  UNL1        0.1437
      9 C         141.0410  142.5011  165.0628 C.ar    1  UNL1        0.0387
     10 C         142.2555  141.9508  164.3757 C.ar    1  UNL1        0.1003
     11 N         142.6436  142.4579  163.0185 N.ar    1  UNL1       -0.2437
     12 C         141.8172  143.5152  162.3483 C.ar    1  UNL1        0.0843
     13 C         142.2054  144.0222  160.9909 C.ar    1  UNL1        0.0560
     14 C         141.3790  145.0795  160.3207 C.ar    1  UNL1        0.1399
     15 C         140.1644  145.6298  161.0079 C.ar    1  UNL1        0.0370
     16 C         139.7763  145.1227  162.3651 C.ar    1  UNL1        0.0046
     17 C         140.6027  144.0654  163.0353 C.ar    1  UNL1        0.0179
     18 C         140.2146  143.5584  164.3926 C.ar    1  UNL1        0.0046
     19 O         141.7671  145.5865  158.9634 O.3     1  UNL1       -0.4791
     20 C         140.7588  145.6043  157.8529 C.3     1  UNL1        0.1661
     21 C         139.9512  146.3652  156.8436 C.3     1  UNL1        0.0472
     22 C         139.8203  144.8740  156.9387 C.3     1  UNL1        0.0472
     23 C         139.2236  139.8610  165.6769 C.2     1  UNL1        0.2470
     24 N         137.8820  140.1687  165.0809 N.am    1  UNL1       -0.3252
     25 O         139.9715  138.6337  165.2473 O.2     1  UNL1       -0.2702
     26 H         137.3911  140.9741  165.3628 H       1  UNL1        0.1453
     27 H         137.4922  139.5651  164.4078 H       1  UNL1        0.1453
     28 C         139.6371  143.0075  170.9752 C.3     1  UNL1        0.0265
     29 C         140.5580  142.0347  170.3002 C.3     1  UNL1        0.1091
     30 C         141.6061  141.3168  171.0979 C.3     1  UNL1        0.0561
     31 C         142.4854  140.2978  170.4358 C.3     1  UNL1        0.1392
     32 O         143.6048  139.6604  171.2043 O.3     1  UNL1       -0.3819
     33 H         144.2702  140.3316  171.4229 H       1  UNL1        0.2104
@<TRIPOS>BOND
     1    28    29    1
     2    29    30    1
     3    30    31    1
     4    31    32    1
     5    29     1    1
     6     1     2   ar
     7     2     3   ar
     8     3     9    1
     9     9    10   ar
    10    10    11   ar
    11    11    12   ar
    12    12    13   ar
    13    13    14   ar
    14    14    19    1
    15    19    20    1
    16    20    21    1
    17    21    22    1
    18    14    15   ar
    19    15    16   ar
    20    16    17   ar
    21    17    18   ar
    22     3     4   ar
    23     4    23    1
    24    23    24   am
    25    23    25    2
    26     4     5   ar
    27     5     6    1
    28     5     1   ar
    29    18     9   ar
    30    17    12   ar
    31    22    20    1
    32    32    33    1
    33    24    26    1
    34    24    27    1
    35     6     7    1
    36     6     8    1
@<TRIPOS>MOLECULE
*****
 33 36 0 0 0
SMALL
GASTEIGER

@<TRIPOS>ATOM
      1 N         140.7176  141.4417  168.1692 N.ar    1  UNL1       -0.2399
      2 N         141.3233  141.5547  166.8016 N.ar    1  UNL1       -0.1681
      3 C         140.6523  140.5497  165.9129 C.ar    1  UNL1        0.1094
      4 C         139.6320  139.8155  166.7313 C.ar    1  UNL1        0.1032
      5 C         139.6723  140.3668  168.1257 C.ar    1  UNL1        0.1280
      6 N         138.8173  139.9213  169.2750 N.pl3   1  UNL1       -0.3427
      7 H         138.1554  139.2039  169.1470 H       1  UNL1        0.1437
      8 H         138.9181  140.3464  170.1572 H       1  UNL1        0.1437
      9 C         140.9496  140.3193  164.4608 C.ar    1  UNL1        0.0387
     10 C         140.0132  140.8408  163.4116 C.ar    1  UNL1        0.1003
     11 N         140.3105  140.6104  161.9595 N.ar    1  UNL1       -0.2437
     12 C         141.5443  139.8584  161.5567 C.ar    1  UNL1        0.0843
     13 C         141.8416  139.6280  160.1046 C.ar    1  UNL1        0.0560
     14 C         143.0754  138.8760  159.7018 C.ar    1  UNL1        0.1399
     15 C         144.0119  138.3544  160.7511 C.ar    1  UNL1        0.0370
     16 C         143.7146  138.5849  162.2032 C.ar    1  UNL1        0.0046
     17 C         142.4808  139.3368  162.6060 C.ar    1  UNL1        0.0179
     18 C         142.1834  139.5673  164.0580 C.ar    1  UNL1        0.0046
     19 O         143.3727  138.6456  158.2498 O.3     1  UNL1       -0.4791
     20 C         142.6545  137.5632  157.4997 C.3     1  UNL1        0.1661
     21 C         141.4347  137.0727  156.7775 C.3     1  UNL1        0.0472
     22 C         142.6304  136.1788  156.9227 C.3     1  UNL1        0.0472
     23 C         138.7297  138.7220  166.2413 C.2     1  UNL1        0.2470
     24 N         139.2189  137.7534  165.2058 N.am    1  UNL1       -0.3252
     25 O         137.3380  138.5970  166.7870 O.2     1  UNL1       -0.2702
     26 H         140.1323  137.8353  164.8477 H       1  UNL1        0.1453
     27 H         138.6267  137.0357  164.8843 H       1  UNL1        0.1453
     28 C         140.3539  143.5311  169.6700 C.3     1  UNL1        0.0265
     29 C         141.0915  142.2600  169.3695 C.3     1  UNL1        0.1091
     30 C         142.2029  141.8071  170.2692 C.3     1  UNL1        0.0561
     31 C         141.8868  141.1092  171.5587 C.3     1  UNL1        0.1392
     32 O         140.5146  140.5501  171.7921 O.3     1  UNL1       -0.3819
     33 H         139.8732  141.2763  171.8390 H       1  UNL1        0.2104
@<TRIPOS>BOND
     1    28    29    1
     2    29    30    1
     3    30    31    1
     4    31    32    1
     5    29     1    1
     6     1     2   ar
     7     2     3   ar
     8     3     9    1
     9     9    10   ar
    10    10    11   ar
    11    11    12   ar
    12    12    13   ar
    13    13    14   ar
    14    14    19    1
    15    19    20    1
    16    20    21    1
    17    21    22    1
    18    14    15   ar
    19    15    16   ar
    20    16    17   ar
    21    17    18   ar
    22     3     4   ar
    23     4    23    1
    24    23    24   am
    25    23    25    2
    26     4     5   ar
    27     5     6    1
    28     5     1   ar
    29    18     9   ar
    30    17    12   ar
    31    22    20    1
    32    32    33    1
    33    24    26    1
    34    24    27    1
    35     6     7    1
    36     6     8    1
@<TRIPOS>MOLECULE
*****
 33 36 0 0 0
SMALL
GASTEIGER

@<TRIPOS>ATOM
      1 N         140.3827  141.6686  167.7427 N.ar    1  UNL1       -0.2399
      2 N         140.2706  141.9366  166.2711 N.ar    1  UNL1       -0.1681
      3 C         139.4621  140.8313  165.6590 C.ar    1  UNL1        0.1094
      4 C         139.0745  139.8802  166.7523 C.ar    1  UNL1        0.1032
      5 C         139.6435  140.3977  168.0401 C.ar    1  UNL1        0.1280
      6 N         139.4987  139.7569  169.3886 N.pl3   1  UNL1       -0.3427
      7 H         138.9916  138.9183  169.4832 H       1  UNL1        0.1437
      8 H         139.9107  140.1748  170.1790 H       1  UNL1        0.1437
      9 C         139.1040  140.7001  164.2083 C.ar    1  UNL1        0.0387
     10 C         137.7979  141.2405  163.7063 C.ar    1  UNL1        0.1003
     11 N         137.4399  141.1093  162.2556 N.ar    1  UNL1       -0.2437
     12 C         138.3880  140.4377  161.3069 C.ar    1  UNL1        0.0843
     13 C         138.0299  140.3065  159.8561 C.ar    1  UNL1        0.0560
     14 C         138.9780  139.6348  158.9074 C.ar    1  UNL1        0.1399
     15 C         140.2841  139.0944  159.4094 C.ar    1  UNL1        0.0370
     16 C         140.6421  139.2256  160.8601 C.ar    1  UNL1        0.0046
     17 C         139.6941  139.8972  161.8088 C.ar    1  UNL1        0.0179
     18 C         140.0521  140.0284  163.2595 C.ar    1  UNL1        0.0046
     19 O         138.6200  139.5036  157.4567 O.3     1  UNL1       -0.4791
     20 C         139.4061  138.5835  156.5704 C.3     1  UNL1        0.1661
     21 C         139.6379  137.2176  155.9955 C.3     1  UNL1        0.0472
     22 C         140.5358  138.3557  155.6103 C.3     1  UNL1        0.0472
     23 C         138.2609  138.6310  166.5869 C.2     1  UNL1        0.2470
     24 N         138.5867  137.6637  165.4878 N.am    1  UNL1       -0.3252
     25 O         137.1212  138.3491  167.5207 O.2     1  UNL1       -0.2702
     26 H         139.3346  137.8486  164.8750 H       1  UNL1        0.1453
     27 H         138.0526  136.8438  165.3794 H       1  UNL1        0.1453
     28 C         140.3627  143.5746  169.5082 C.3     1  UNL1        0.0265
     29 C         141.1069  142.5218  168.7416 C.3     1  UNL1        0.1091
     30 C         142.5753  142.3221  168.9738 C.3     1  UNL1        0.0561
     31 C         143.0483  141.2344  169.8920 C.3     1  UNL1        0.1392
     32 O         142.0880  140.5877  170.8457 O.3     1  UNL1       -0.3819
     33 H         141.7964  141.2393  171.5025 H       1  UNL1        0.2104
@<TRIPOS>BOND
     1    28    29    1
     2    29    30    1
     3    30    31    1
     4    31    32    1
     5    29     1    1
     6     1     2   ar
     7     2     3   ar
     8     3     9    1
     9     9    10   ar
    10    10    11   ar
    11    11    12   ar
    12    12    13   ar
    13    13    14   ar
    14    14    19    1
    15    19    20    1
    16    20    21    1
    17    21    22    1
    18    14    15   ar
    19    15    16   ar
    20    16    17   ar
    21    17    18   ar
    22     3     4   ar
    23     4    23    1
    24    23    24   am
    25    23    25    2
    26     4     5   ar
    27     5     6    1
    28     5     1   ar
    29    18     9   ar
    30    17    12   ar
    31    22    20    1
    32    32    33    1
    33    24    26    1
    34    24    27    1
    35     6     7    1
    36     6     8    1
@<TRIPOS>MOLECULE
*****
 33 36 0 0 0
SMALL
GASTEIGER

@<TRIPOS>ATOM
      1 N         140.5825  140.3028  168.2914 N.ar    1  UNL1       -0.2399
      2 N         139.8519  140.1426  166.9912 N.ar    1  UNL1       -0.1681
      3 C         140.7881  139.5032  166.0090 C.ar    1  UNL1        0.1094
      4 C         142.0974  139.2683  166.7022 C.ar    1  UNL1        0.1032
      5 C         141.9704  139.7624  168.1127 C.ar    1  UNL1        0.1280
      6 N         143.0430  139.7231  169.1607 N.pl3   1  UNL1       -0.3427
      7 H         143.9271  139.3468  168.9463 H       1  UNL1        0.1437
      8 H         142.8627  140.0736  170.0628 H       1  UNL1        0.1437
      9 C         140.4707  139.1592  164.5839 C.ar    1  UNL1        0.0387
     10 C         140.2547  137.7287  164.1879 C.ar    1  UNL1        0.1003
     11 N         139.9373  137.3847  162.7628 N.ar    1  UNL1       -0.2437
     12 C         139.8360  138.4713  161.7337 C.ar    1  UNL1        0.0843
     13 C         139.5185  138.1273  160.3085 C.ar    1  UNL1        0.0560
     14 C         139.4172  139.2139  159.2794 C.ar    1  UNL1        0.1399
     15 C         139.6332  140.6445  159.6755 C.ar    1  UNL1        0.0370
     16 C         139.9506  140.9885  161.1006 C.ar    1  UNL1        0.0046
     17 C         140.0520  139.9019  162.1297 C.ar    1  UNL1        0.0179
     18 C         140.3693  140.2458  163.5548 C.ar    1  UNL1        0.0046
     19 O         139.0998  138.8700  157.8544 O.3     1  UNL1       -0.4791
     20 C         140.0203  137.9780  157.0752 C.3     1  UNL1        0.1661
     21 C         140.2303  136.9251  156.0277 C.3     1  UNL1        0.0472
     22 C         141.4048  137.4860  156.7732 C.3     1  UNL1        0.0472
     23 C         143.3193  138.6481  166.0919 C.2     1  UNL1        0.2470
     24 N         143.7012  138.9766  164.6791 N.am    1  UNL1       -0.3252
     25 O         144.1593  137.6993  166.8946 O.2     1  UNL1       -0.2702
     26 H         143.1500  139.5993  164.1522 H       1  UNL1        0.1453
     27 H         144.5032  138.5695  164.2786 H       1  UNL1        0.1453
     28 C         138.8390  140.2655  170.2172 C.3     1  UNL1        0.0265
     29 C         140.0235  140.8987  169.5493 C.3     1  UNL1        0.1091
     30 C         140.6490  142.1277  170.1393 C.3     1  UNL1        0.0561
     31 C         141.7709  141.9981  171.1265 C.3     1  UNL1        0.1392
     32 O         141.9782  140.7068  171.8610 O.3     1  UNL1       -0.3819
     33 H         141.2245  140.5451  172.4497 H       1  UNL1        0.2104
@<TRIPOS>BOND
     1    28    29    1
     2    29    30    1
     3    30    31    1
     4    31    32    1
     5    29     1    1
     6     1     2   ar
     7     2     3   ar
     8     3     9    1
     9     9    10   ar
    10    10    11   ar
    11    11    12   ar
    12    12    13   ar
    13    13    14   ar
    14    14    19    1
    15    19    20    1
    16    20    21    1
    17    21    22    1
    18    14    15   ar
    19    15    16   ar
    20    16    17   ar
    21    17    18   ar
    22     3     4   ar
    23     4    23    1
    24    23    24   am
    25    23    25    2
    26     4     5   ar
    27     5     6    1
    28     5     1   ar
    29    18     9   ar
    30    17    12   ar
    31    22    20    1
    32    32    33    1
    33    24    26    1
    34    24    27    1
    35     6     7    1
    36     6     8    1
@<TRIPOS>MOLECULE
*****
 33 36 0 0 0
SMALL
GASTEIGER

@<TRIPOS>ATOM
      1 N         141.6141  139.8818  168.0383 N.ar    1  UNL1       -0.2399
      2 N         142.1188  139.6395  166.6468 N.ar    1  UNL1       -0.1681
      3 C         140.9320  139.4412  165.7512 C.ar    1  UNL1        0.1094
      4 C         139.6937  139.5610  166.5892 C.ar    1  UNL1        0.1032
      5 C         140.1153  139.8333  168.0028 C.ar    1  UNL1        0.1280
      6 N         139.1989  140.0236  169.1750 N.pl3   1  UNL1       -0.3427
      7 H         138.2236  139.9733  169.0506 H       1  UNL1        0.1437
      8 H         139.5728  140.1988  170.0687 H       1  UNL1        0.1437
      9 C         140.9757  139.1707  164.2764 C.ar    1  UNL1        0.0387
     10 C         140.7863  137.7736  163.7642 C.ar    1  UNL1        0.1003
     11 N         140.8301  137.5031  162.2895 N.ar    1  UNL1       -0.2437
     12 C         141.0632  138.6297  161.3269 C.ar    1  UNL1        0.0843
     13 C         141.1070  138.3591  159.8521 C.ar    1  UNL1        0.0560
     14 C         141.3402  139.4857  158.8895 C.ar    1  UNL1        0.1399
     15 C         141.5296  140.8828  159.4018 C.ar    1  UNL1        0.0370
     16 C         141.4859  141.1533  160.8765 C.ar    1  UNL1        0.0046
     17 C         141.2527  140.0267  161.8391 C.ar    1  UNL1        0.0179
     18 C         141.2089  140.2972  163.3138 C.ar    1  UNL1        0.0046
     19 O         141.3840  139.2152  157.4148 O.3     1  UNL1       -0.4791
     20 C         142.0673  137.9839  156.8981 C.3     1  UNL1        0.1661
     21 C         142.0655  136.5046  156.6495 C.3     1  UNL1        0.0472
     22 C         143.2527  137.3305  156.2516 C.3     1  UNL1        0.0472
     23 C         138.2818  139.4312  166.0998 C.2     1  UNL1        0.2470
     24 N         137.8244  140.2228  164.9107 N.am    1  UNL1       -0.3252
     25 O         137.3272  138.5096  166.7995 O.2     1  UNL1       -0.2702
     26 H         138.4509  140.8277  164.4514 H       1  UNL1        0.1453
     27 H         136.8977  140.1376  164.5895 H       1  UNL1        0.1453
     28 C         142.6933  139.0258  170.2412 C.3     1  UNL1        0.0265
     29 C         142.4597  140.1292  169.2523 C.3     1  UNL1        0.1091
     30 C         143.0717  141.4801  169.4774 C.3     1  UNL1        0.0561
     31 C         142.3772  142.4818  170.3515 C.3     1  UNL1        0.1392
     32 O         142.1228  142.1680  171.7960 O.3     1  UNL1       -0.3819
     33 H         141.4941  141.4322  171.8612 H       1  UNL1        0.2104
@<TRIPOS>BOND
     1    28    29    1
     2    29    30    1
     3    30    31    1
     4    31    32    1
     5    29     1    1
     6     1     2   ar
     7     2     3   ar
     8     3     9    1
     9     9    10   ar
    10    10    11   ar
    11    11    12   ar
    12    12    13   ar
    13    13    14   ar
    14    14    19    1
    15    19    20    1
    16    20    21    1
    17    21    22    1
    18    14    15   ar
    19    15    16   ar
    20    16    17   ar
    21    17    18   ar
    22     3     4   ar
    23     4    23    1
    24    23    24   am
    25    23    25    2
    26     4     5   ar
    27     5     6    1
    28     5     1   ar
    29    18     9   ar
    30    17    12   ar
    31    22    20    1
    32    32    33    1
    33    24    26    1
    34    24    27    1
    35     6     7    1
    36     6     8    1
@<TRIPOS>MOLECULE
*****
 33 36 0 0 0
SMALL
GASTEIGER

@<TRIPOS>ATOM
      1 N         140.1486  141.1316  166.9561 N.ar    1  UNL1       -0.2399
      2 N         140.5681  142.2296  166.0242 N.ar    1  UNL1       -0.1681
      3 C         139.8134  142.0604  164.7390 C.ar    1  UNL1        0.1094
      4 C         138.9274  140.8579  164.8765 C.ar    1  UNL1        0.1032
      5 C         139.1346  140.2838  166.2467 C.ar    1  UNL1        0.1280
      6 N         138.4483  139.0743  166.8089 N.pl3   1  UNL1       -0.3427
      7 H         137.7941  138.5812  166.2629 H       1  UNL1        0.1437
      8 H         138.6520  138.7735  167.7239 H       1  UNL1        0.1437
      9 C         139.9250  142.9396  163.5287 C.ar    1  UNL1        0.0387
     10 C         139.0197  144.1259  163.3773 C.ar    1  UNL1        0.1003
     11 N         139.1314  145.0050  162.1671 N.ar    1  UNL1       -0.2437
     12 C         140.1484  144.6977  161.1082 C.ar    1  UNL1        0.0843
     13 C         140.2600  145.5768  159.8979 C.ar    1  UNL1        0.0560
     14 C         141.2771  145.2695  158.8390 C.ar    1  UNL1        0.1399
     15 C         142.1824  144.0831  158.9904 C.ar    1  UNL1        0.0370
     16 C         142.0707  143.2041  160.2006 C.ar    1  UNL1        0.0046
     17 C         141.0537  143.5113  161.2595 C.ar    1  UNL1        0.0179
     18 C         140.9420  142.6323  162.4698 C.ar    1  UNL1        0.0046
     19 O         141.3887  146.1486  157.6287 O.3     1  UNL1       -0.4791
     20 C         140.2245  146.2883  156.6932 C.3     1  UNL1        0.1661
     21 C         139.1440  145.6631  155.8615 C.3     1  UNL1        0.0472
     22 C         139.2886  147.1555  155.9045 C.3     1  UNL1        0.0472
     23 C         137.9976  140.3232  163.8279 C.2     1  UNL1        0.2470
     24 N         136.8456  141.1572  163.3513 N.am    1  UNL1       -0.3252
     25 O         138.2198  138.9544  163.2560 O.2     1  UNL1       -0.2702
     26 H         136.6997  142.0556  163.7266 H       1  UNL1        0.1453
     27 H         136.2353  140.8062  162.6630 H       1  UNL1        0.1453
     28 C         141.9605  140.2165  168.5777 C.3     1  UNL1        0.0265
     29 C         140.6543  140.9187  168.3521 C.3     1  UNL1        0.1091
     30 C         139.8538  141.4079  169.5225 C.3     1  UNL1        0.0561
     31 C         140.5367  141.7163  170.8219 C.3     1  UNL1        0.1392
     32 O         140.6279  140.6660  171.8889 O.3     1  UNL1       -0.3819
     33 H         139.7386  140.4610  172.2176 H       1  UNL1        0.2104
@<TRIPOS>BOND
     1    28    29    1
     2    29    30    1
     3    30    31    1
     4    31    32    1
     5    29     1    1
     6     1     2   ar
     7     2     3   ar
     8     3     9    1
     9     9    10   ar
    10    10    11   ar
    11    11    12   ar
    12    12    13   ar
    13    13    14   ar
    14    14    19    1
    15    19    20    1
    16    20    21    1
    17    21    22    1
    18    14    15   ar
    19    15    16   ar
    20    16    17   ar
    21    17    18   ar
    22     3     4   ar
    23     4    23    1
    24    23    24   am
    25    23    25    2
    26     4     5   ar
    27     5     6    1
    28     5     1   ar
    29    18     9   ar
    30    17    12   ar
    31    22    20    1
    32    32    33    1
    33    24    26    1
    34    24    27    1
    35     6     7    1
    36     6     8    1
@<TRIPOS>MOLECULE
*****
 33 36 0 0 0
SMALL
GASTEIGER

@<TRIPOS>ATOM
      1 N         141.0712  138.9556  159.0338 N.ar    1  UNL1       -0.2399
      2 N         141.5013  139.0205  160.4693 N.ar    1  UNL1       -0.1681
      3 C         140.3324  139.4920  161.2825 C.ar    1  UNL1        0.1094
      4 C         139.1799  139.7186  160.3496 C.ar    1  UNL1        0.1032
      5 C         139.6365  139.3871  158.9598 C.ar    1  UNL1        0.1280
      6 N         138.8045  139.4721  157.7146 N.pl3   1  UNL1       -0.3427
      7 H         137.8670  139.7680  157.7682 H       1  UNL1        0.1437
      8 H         139.1958  139.2319  156.8437 H       1  UNL1        0.1437
      9 C         140.3185  139.7005  162.7680 C.ar    1  UNL1        0.0387
     10 C         141.4187  140.4789  163.4264 C.ar    1  UNL1        0.1003
     11 N         141.4047  140.6873  164.9118 N.ar    1  UNL1       -0.2437
     12 C         140.2906  140.1172  165.7387 C.ar    1  UNL1        0.0843
     13 C         140.2767  140.3256  167.2241 C.ar    1  UNL1        0.0560
     14 C         139.1626  139.7556  168.0510 C.ar    1  UNL1        0.1399
     15 C         138.0624  138.9771  167.3925 C.ar    1  UNL1        0.0370
     16 C         138.0763  138.7687  165.9072 C.ar    1  UNL1        0.0046
     17 C         139.1905  139.3388  165.0802 C.ar    1  UNL1        0.0179
     18 C         139.2044  139.1304  163.5949 C.ar    1  UNL1        0.0046
     19 O         139.1487  139.9639  169.5364 O.3     1  UNL1       -0.4791
     20 C         139.8156  141.1688  170.1310 C.3     1  UNL1        0.1661
     21 C         140.8992  141.7686  170.9773 C.3     1  UNL1        0.0472
     22 C         139.8873  142.6557  170.3147 C.3     1  UNL1        0.0472
     23 C         137.8111  140.1933  160.7382 C.2     1  UNL1        0.2470
     24 N         136.6195  139.3103  160.5149 N.am    1  UNL1       -0.3252
     25 O         137.6341  141.5514  161.3502 O.2     1  UNL1       -0.2702
     26 H         136.7356  138.4190  160.1132 H       1  UNL1        0.1453
     27 H         135.7211  139.6219  160.7699 H       1  UNL1        0.1453
     28 C         142.8678  139.5137  157.2419 C.3     1  UNL1        0.0265
     29 C         141.9258  138.5333  157.8756 C.3     1  UNL1        0.1091
     30 C         141.8383  137.1308  157.3510 C.3     1  UNL1        0.0561
     31 C         140.9195  136.8132  156.2087 C.3     1  UNL1        0.1392
     32 O         139.4405  136.7185  156.4398 O.3     1  UNL1       -0.3819
     33 H         139.2511  135.9613  157.0158 H       1  UNL1        0.2104
@<TRIPOS>BOND
     1    28    29    1
     2    29    30    1
     3    30    31    1
     4    31    32    1
     5    29     1    1
     6     1     2   ar
     7     2     3   ar
     8     3     9    1
     9     9    10   ar
    10    10    11   ar
    11    11    12   ar
    12    12    13   ar
    13    13    14   ar
    14    14    19    1
    15    19    20    1
    16    20    21    1
    17    21    22    1
    18    14    15   ar
    19    15    16   ar
    20    16    17   ar
    21    17    18   ar
    22     3     4   ar
    23     4    23    1
    24    23    24   am
    25    23    25    2
    26     4     5   ar
    27     5     6    1
    28     5     1   ar
    29    18     9   ar
    30    17    12   ar
    31    22    20    1
    32    32    33    1
    33    24    26    1
    34    24    27    1
    35     6     7    1
    36     6     8    1
@<TRIPOS>MOLECULE
*****
 33 36 0 0 0
SMALL
GASTEIGER

@<TRIPOS>ATOM
      1 N         141.8757  141.4297  168.4753 N.ar    1  UNL1       -0.2399
      2 N         141.7728  142.0295  167.1043 N.ar    1  UNL1       -0.1681
      3 C         142.2064  140.9925  166.1109 C.ar    1  UNL1        0.1094
      4 C         142.5772  139.7519  166.8679 C.ar    1  UNL1        0.1032
      5 C         142.3729  140.0220  168.3292 C.ar    1  UNL1        0.1280
      6 N         142.6220  139.0544  169.4480 N.pl3   1  UNL1       -0.3427
      7 H         142.9502  138.1474  169.2505 H       1  UNL1        0.1437
      8 H         142.4573  139.3262  170.3798 H       1  UNL1        0.1437
      9 C         142.2597  141.1659  164.6218 C.ar    1  UNL1        0.0387
     10 C         141.0762  140.7904  163.7802 C.ar    1  UNL1        0.1003
     11 N         141.1296  140.9637  162.2912 N.ar    1  UNL1       -0.2437
     12 C         142.3664  141.5126  161.6439 C.ar    1  UNL1        0.0843
     13 C         142.4198  141.6859  160.1549 C.ar    1  UNL1        0.0560
     14 C         143.6566  142.2348  159.5076 C.ar    1  UNL1        0.1399
     15 C         144.8401  142.6103  160.3493 C.ar    1  UNL1        0.0370
     16 C         144.7867  142.4370  161.8382 C.ar    1  UNL1        0.0046
     17 C         143.5499  141.8881  162.4856 C.ar    1  UNL1        0.0179
     18 C         143.4965  141.7147  163.9745 C.ar    1  UNL1        0.0046
     19 O         143.7100  142.4082  158.0186 O.3     1  UNL1       -0.4791
     20 C         144.9308  141.9837  157.2573 C.3     1  UNL1        0.1661
     21 C         145.6543  140.9672  156.4246 C.3     1  UNL1        0.0472
     22 C         146.3218  142.2649  156.7716 C.3     1  UNL1        0.0472
     23 C         143.0666  138.4667  166.2690 C.2     1  UNL1        0.2470
     24 N         144.3322  137.8385  166.7724 N.am    1  UNL1       -0.3252
     25 O         142.2902  137.8096  165.1664 O.2     1  UNL1       -0.2702
     26 H         144.8418  138.2697  167.4960 H       1  UNL1        0.1453
     27 H         144.6533  136.9949  166.3792 H       1  UNL1        0.1453
     28 C         142.5713  142.9588  170.4572 C.3     1  UNL1        0.0265
     29 C         141.5403  142.1169  169.7657 C.3     1  UNL1        0.1091
     30 C         140.1738  141.9621  170.3647 C.3     1  UNL1        0.0561
     31 C         139.4627  140.6441  170.2800 C.3     1  UNL1        0.1392
     32 O         139.8651  139.5155  171.1824 O.3     1  UNL1       -0.3819
     33 H         140.7649  139.2291  170.9604 H       1  UNL1        0.2104
@<TRIPOS>BOND
     1    28    29    1
     2    29    30    1
     3    30    31    1
     4    31    32    1
     5    29     1    1
     6     1     2   ar
     7     2     3   ar
     8     3     9    1
     9     9    10   ar
    10    10    11   ar
    11    11    12   ar
    12    12    13   ar
    13    13    14   ar
    14    14    19    1
    15    19    20    1
    16    20    21    1
    17    21    22    1
    18    14    15   ar
    19    15    16   ar
    20    16    17   ar
    21    17    18   ar
    22     3     4   ar
    23     4    23    1
    24    23    24   am
    25    23    25    2
    26     4     5   ar
    27     5     6    1
    28     5     1   ar
    29    18     9   ar
    30    17    12   ar
    31    22    20    1
    32    32    33    1
    33    24    26    1
    34    24    27    1
    35     6     7    1
    36     6     8    1
