@<TRIPOS>MOLECULE
*****
 32 33 0 0 0
SMALL
GASTEIGER

@<TRIPOS>ATOM
      1 C         139.4226  139.8764  166.5277 C.3     1  UNL1        0.2227
      2 C         139.2986  139.8482  168.0223 C.3     1  UNL1        0.1201
      3 N         140.3537  140.4886  168.8746 N.3     1  UNL1       -0.2681
      4 C         140.8533  139.7874  170.1030 C.3     1  UNL1        0.0897
      5 C         140.9094  141.8302  168.4986 C.3     1  UNL1        0.0769
      6 C         142.3883  142.0060  168.3196 C.3     1  UNL1        0.0438
      7 C         144.2788  141.2212  164.3122 C.ar    1  UNL1        0.1724
      8 C         144.3494  142.5909  164.9194 C.ar    1  UNL1        0.0397
      9 C         143.7192  142.8525  166.2552 C.ar    1  UNL1       -0.0009
     10 C         143.0185  141.7444  166.9838 C.ar    1  UNL1       -0.0176
     11 C         142.9479  140.3746  166.3766 C.ar    1  UNL1        0.0358
     12 C         143.5781  140.1130  165.0408 C.ar    1  UNL1        0.1721
     13 C         144.1222  141.1834  161.7191 C.3     1  UNL1        0.2526
     14 O         144.9090  140.9595  162.9764 O.3     1  UNL1       -0.4684
     15 O         143.5075  138.7432  164.4336 O.3     1  UNL1       -0.4684
     16 C         142.1752  138.1296  164.1198 C.3     1  UNL1        0.2526
     17 O         138.3931  140.5905  165.7030 O.3     1  UNL1       -0.4727
     18 C         138.7561  141.8529  164.9788 C.ar    1  UNL1        0.1514
     19 C         139.8782  142.7108  165.4834 C.ar    1  UNL1        0.0395
     20 C         140.2413  143.9732  164.7592 C.ar    1  UNL1        0.0190
     21 C         139.4823  144.3777  163.5303 C.ar    1  UNL1        0.0658
     22 C         138.3601  143.5197  163.0256 C.ar    1  UNL1        0.0330
     23 C         137.9970  142.2573  163.7498 C.ar    1  UNL1        0.0773
     24 N         136.8749  141.3993  163.2452 N.pl3   1  UNL1       -0.3546
     25 H         136.3767  141.6647  162.4386 H       1  UNL1        0.1424
     26 H         136.6366  140.5708  163.7205 H       1  UNL1        0.1424
     27 N         139.8453  145.6401  162.8060 N.pl3   1  UNL1       -0.2187
     28 H         139.8569  146.4983  163.2882 H       1  UNL1        0.1734
     29 S         140.1908  145.5949  161.3471 S.O2    1  UNL1        0.0558
     30 C         140.5363  145.5497  159.8881 C.3     1  UNL1        0.1996
     31 O         141.3513  144.6940  161.6498 O.2     1  UNL1       -0.1544
     32 O         139.0304  146.4958  161.0444 O.2     1  UNL1       -0.1544
@<TRIPOS>BOND
     1    13    14    1
     2    14     7    1
     3     7     8   ar
     4     8     9   ar
     5     9    10   ar
     6    10     6    1
     7     6     5    1
     8     5     3    1
     9     3     4    1
    10     3     2    1
    11     2     1    1
    12     1    17    1
    13    17    18    1
    14    18    19   ar
    15    19    20   ar
    16    20    21   ar
    17    21    27    1
    18    27    29    1
    19    29    30    1
    20    29    31    2
    21    29    32    2
    22    21    22   ar
    23    22    23   ar
    24    23    24    1
    25    10    11   ar
    26    11    12   ar
    27    12    15    1
    28    15    16    1
    29    12     7   ar
    30    23    18   ar
    31    27    28    1
    32    24    25    1
    33    24    26    1
@<TRIPOS>MOLECULE
*****
 32 33 0 0 0
SMALL
GASTEIGER

@<TRIPOS>ATOM
      1 C         141.6576  143.1112  162.8426 C.3     1  UNL1        0.2227
      2 C         141.5269  144.6040  162.9104 C.3     1  UNL1        0.1201
      3 N         140.1702  145.2337  163.0236 N.3     1  UNL1       -0.2681
      4 C         139.6693  146.1368  161.9357 C.3     1  UNL1        0.0897
      5 C         139.3144  144.9603  164.2248 C.3     1  UNL1        0.0769
      6 C         138.0120  144.2328  164.0679 C.3     1  UNL1        0.0438
      7 C         137.9697  139.9968  162.5500 C.ar    1  UNL1        0.1724
      8 C         137.9835  140.2645  164.0259 C.ar    1  UNL1        0.0397
      9 C         137.9977  141.6766  164.5318 C.ar    1  UNL1       -0.0009
     10 C         137.9979  142.8208  163.5620 C.ar    1  UNL1       -0.0176
     11 C         137.9841  142.5530  162.0861 C.ar    1  UNL1        0.0358
     12 C         137.9700  141.1410  161.5802 C.ar    1  UNL1        0.1721
     13 C         139.2170  137.9618  161.5239 C.3     1  UNL1        0.2526
     14 O         137.9556  138.5847  162.0441 O.3     1  UNL1       -0.4684
     15 O         137.9561  140.8733  160.1043 O.3     1  UNL1       -0.4684
     16 C         138.4684  141.9101  159.1491 C.3     1  UNL1        0.2526
     17 O         142.4421  142.3787  163.8904 O.3     1  UNL1       -0.4727
     18 C         141.7363  141.7630  165.0621 C.ar    1  UNL1        0.1514
     19 C         141.2268  142.6332  166.1725 C.ar    1  UNL1        0.0395
     20 C         140.5210  142.0176  167.3442 C.ar    1  UNL1        0.0190
     21 C         140.3248  140.5318  167.4055 C.ar    1  UNL1        0.0658
     22 C         140.8344  139.6615  166.2950 C.ar    1  UNL1        0.0330
     23 C         141.5401  140.2771  165.1233 C.ar    1  UNL1        0.0773
     24 N         142.0496  139.4070  164.0129 N.pl3   1  UNL1       -0.3546
     25 H         141.9209  138.4317  164.0531 H       1  UNL1        0.1424
     26 H         142.5129  139.8110  163.2439 H       1  UNL1        0.1424
     27 N         139.6191  139.9161  168.5772 N.pl3   1  UNL1       -0.2187
     28 H         138.8571  139.3103  168.4301 H       1  UNL1        0.1734
     29 S         140.0742  140.2236  169.9730 S.O2    1  UNL1        0.0558
     30 C         140.5293  140.5310  171.3688 C.3     1  UNL1        0.1996
     31 O         138.7760  140.9253  170.2418 O.2     1  UNL1       -0.1544
     32 O         141.3724  139.5219  169.7043 O.2     1  UNL1       -0.1544
@<TRIPOS>BOND
     1    13    14    1
     2    14     7    1
     3     7     8   ar
     4     8     9   ar
     5     9    10   ar
     6    10     6    1
     7     6     5    1
     8     5     3    1
     9     3     4    1
    10     3     2    1
    11     2     1    1
    12     1    17    1
    13    17    18    1
    14    18    19   ar
    15    19    20   ar
    16    20    21   ar
    17    21    27    1
    18    27    29    1
    19    29    30    1
    20    29    31    2
    21    29    32    2
    22    21    22   ar
    23    22    23   ar
    24    23    24    1
    25    10    11   ar
    26    11    12   ar
    27    12    15    1
    28    15    16    1
    29    12     7   ar
    30    23    18   ar
    31    27    28    1
    32    24    25    1
    33    24    26    1
@<TRIPOS>MOLECULE
*****
 32 33 0 0 0
SMALL
GASTEIGER

@<TRIPOS>ATOM
      1 C         142.3588  138.6164  163.6135 C.3     1  UNL1        0.2227
      2 C         141.4760  137.5591  164.2075 C.3     1  UNL1        0.1201
      3 N         139.9867  137.7378  164.2061 N.3     1  UNL1       -0.2681
      4 C         139.2251  137.6759  162.9152 C.3     1  UNL1        0.0897
      5 C         139.2589  137.9784  165.4954 C.3     1  UNL1        0.0769
      6 C         138.2096  139.0472  165.5762 C.3     1  UNL1        0.0438
      7 C         139.2096  143.2753  164.4041 C.ar    1  UNL1        0.1724
      8 C         139.7857  142.6885  165.6586 C.ar    1  UNL1        0.0397
      9 C         139.4524  141.2792  166.0493 C.ar    1  UNL1       -0.0009
     10 C         138.5430  140.4566  165.1855 C.ar    1  UNL1       -0.0176
     11 C         137.9668  141.0433  163.9311 C.ar    1  UNL1        0.0358
     12 C         138.3001  142.4527  163.5404 C.ar    1  UNL1        0.1721
     13 C         140.6740  144.9526  163.0655 C.3     1  UNL1        0.2526
     14 O         139.5429  144.6846  164.0134 O.3     1  UNL1       -0.4684
     15 O         137.7239  143.0394  162.2858 O.3     1  UNL1       -0.4684
     16 C         138.3040  142.6739  160.9517 C.3     1  UNL1        0.2526
     17 O         143.4785  139.2003  164.4230 O.3     1  UNL1       -0.4727
     18 C         143.1939  139.8221  165.7580 C.ar    1  UNL1        0.1514
     19 C         142.8811  138.9521  166.9392 C.ar    1  UNL1        0.0395
     20 C         142.5964  139.5739  168.2742 C.ar    1  UNL1        0.0190
     21 C         142.6246  141.0657  168.4281 C.ar    1  UNL1        0.0658
     22 C         142.9374  141.9358  167.2469 C.ar    1  UNL1        0.0330
     23 C         143.2220  141.3140  165.9118 C.ar    1  UNL1        0.0773
     24 N         143.5348  142.1840  164.7306 N.pl3   1  UNL1       -0.3546
     25 H         143.5533  143.1631  164.8316 H       1  UNL1        0.1424
     26 H         143.7216  141.7758  163.8544 H       1  UNL1        0.1424
     27 N         142.3399  141.6875  169.7631 N.pl3   1  UNL1       -0.2187
     28 H         142.7645  141.3267  170.5748 H       1  UNL1        0.1734
     29 S         141.4083  142.8590  169.8615 S.O2    1  UNL1        0.0558
     30 C         140.4767  144.0304  169.9600 C.3     1  UNL1        0.1996
     31 O         140.2888  142.0132  169.3312 O.2     1  UNL1       -0.1544
     32 O         142.5279  143.7047  170.3919 O.2     1  UNL1       -0.1544
@<TRIPOS>BOND
     1    13    14    1
     2    14     7    1
     3     7     8   ar
     4     8     9   ar
     5     9    10   ar
     6    10     6    1
     7     6     5    1
     8     5     3    1
     9     3     4    1
    10     3     2    1
    11     2     1    1
    12     1    17    1
    13    17    18    1
    14    18    19   ar
    15    19    20   ar
    16    20    21   ar
    17    21    27    1
    18    27    29    1
    19    29    30    1
    20    29    31    2
    21    29    32    2
    22    21    22   ar
    23    22    23   ar
    24    23    24    1
    25    10    11   ar
    26    11    12   ar
    27    12    15    1
    28    15    16    1
    29    12     7   ar
    30    23    18   ar
    31    27    28    1
    32    24    25    1
    33    24    26    1
@<TRIPOS>MOLECULE
*****
 32 33 0 0 0
SMALL
GASTEIGER

@<TRIPOS>ATOM
      1 C         143.5626  139.2890  165.7269 C.3     1  UNL1        0.2227
      2 C         142.1979  139.2532  166.3486 C.3     1  UNL1        0.1201
      3 N         141.5547  140.5239  166.8192 N.3     1  UNL1       -0.2681
      4 C         142.3583  141.7883  166.8942 C.3     1  UNL1        0.0897
      5 C         140.1078  140.5303  167.2148 C.3     1  UNL1        0.0769
      6 C         139.1893  139.4541  166.7167 C.3     1  UNL1        0.0438
      7 C         138.0455  139.3075  162.3669 C.ar    1  UNL1        0.1724
      8 C         138.6816  138.1141  163.0158 C.ar    1  UNL1        0.0397
      9 C         139.0628  138.1629  164.4657 C.ar    1  UNL1       -0.0009
     10 C         138.8081  139.4052  165.2668 C.ar    1  UNL1       -0.0176
     11 C         138.1720  140.5987  164.6179 C.ar    1  UNL1        0.0358
     12 C         137.7908  140.5498  163.1680 C.ar    1  UNL1        0.1721
     13 C         138.6978  139.5155  159.8607 C.3     1  UNL1        0.2526
     14 O         137.6643  139.2587  160.9170 O.3     1  UNL1       -0.4684
     15 O         137.1547  141.7434  162.5191 O.3     1  UNL1       -0.4684
     16 C         138.0006  142.7286  161.7682 C.3     1  UNL1        0.2526
     17 O         143.7062  139.4323  164.2407 O.3     1  UNL1       -0.4727
     18 C         143.3914  140.7414  163.5796 C.ar    1  UNL1        0.1514
     19 C         141.9946  141.0306  163.1155 C.ar    1  UNL1        0.0395
     20 C         141.6799  142.3397  162.4544 C.ar    1  UNL1        0.0190
     21 C         142.7618  143.3597  162.2574 C.ar    1  UNL1        0.0658
     22 C         144.1587  143.0706  162.7215 C.ar    1  UNL1        0.0330
     23 C         144.4735  141.7615  163.3826 C.ar    1  UNL1        0.0773
     24 N         145.8702  141.4723  163.8467 N.pl3   1  UNL1       -0.3546
     25 H         146.5804  142.1418  163.7173 H       1  UNL1        0.1424
     26 H         146.0768  140.6131  164.2806 H       1  UNL1        0.1424
     27 N         142.4471  144.6689  161.5963 N.pl3   1  UNL1       -0.2187
     28 H         143.1160  145.1017  161.0180 H       1  UNL1        0.1734
     29 S         141.1131  145.3186  161.8162 S.O2    1  UNL1        0.0558
     30 C         139.7792  145.9682  162.0362 C.3     1  UNL1        0.1996
     31 O         140.7243  144.9987  160.4033 O.2     1  UNL1       -0.1544
     32 O         141.5019  145.6384  163.2292 O.2     1  UNL1       -0.1544
@<TRIPOS>BOND
     1    13    14    1
     2    14     7    1
     3     7     8   ar
     4     8     9   ar
     5     9    10   ar
     6    10     6    1
     7     6     5    1
     8     5     3    1
     9     3     4    1
    10     3     2    1
    11     2     1    1
    12     1    17    1
    13    17    18    1
    14    18    19   ar
    15    19    20   ar
    16    20    21   ar
    17    21    27    1
    18    27    29    1
    19    29    30    1
    20    29    31    2
    21    29    32    2
    22    21    22   ar
    23    22    23   ar
    24    23    24    1
    25    10    11   ar
    26    11    12   ar
    27    12    15    1
    28    15    16    1
    29    12     7   ar
    30    23    18   ar
    31    27    28    1
    32    24    25    1
    33    24    26    1
@<TRIPOS>MOLECULE
*****
 32 33 0 0 0
SMALL
GASTEIGER

@<TRIPOS>ATOM
      1 C         140.2977  137.4531  164.4032 C.3     1  UNL1        0.2227
      2 C         140.9670  137.2016  163.0846 C.3     1  UNL1        0.1201
      3 N         141.7269  138.3031  162.4070 N.3     1  UNL1       -0.2681
      4 C         141.1400  138.9941  161.2119 C.3     1  UNL1        0.0897
      5 C         143.0736  138.7136  162.9244 C.3     1  UNL1        0.0769
      6 C         143.2247  139.9956  163.6882 C.3     1  UNL1        0.0438
      7 C         142.6254  140.0417  168.1479 C.ar    1  UNL1        0.1724
      8 C         143.0643  138.7814  167.4631 C.ar    1  UNL1        0.0397
      9 C         143.2641  138.7660  165.9766 C.ar    1  UNL1       -0.0009
     10 C         143.0250  140.0110  165.1748 C.ar    1  UNL1       -0.0176
     11 C         142.5861  141.2713  165.8596 C.ar    1  UNL1        0.0358
     12 C         142.3863  141.2866  167.3461 C.ar    1  UNL1        0.1721
     13 C         141.0920  139.6922  170.2158 C.3     1  UNL1        0.2526
     14 O         142.4257  140.0570  169.6345 O.3     1  UNL1       -0.4684
     15 O         141.9474  142.5470  168.0309 O.3     1  UNL1       -0.4684
     16 C         140.4859  142.8518  168.1761 C.3     1  UNL1        0.2526
     17 O         138.8831  137.9503  164.4436 O.3     1  UNL1       -0.4727
     18 C         138.5881  139.3957  164.1723 C.ar    1  UNL1        0.1514
     19 C         138.9689  140.4407  165.1788 C.ar    1  UNL1        0.0395
     20 C         138.6739  141.8861  164.9075 C.ar    1  UNL1        0.0190
     21 C         137.9981  142.2867  163.6297 C.ar    1  UNL1        0.0658
     22 C         137.6173  141.2417  162.6231 C.ar    1  UNL1        0.0330
     23 C         137.9123  139.7963  162.8944 C.ar    1  UNL1        0.0773
     24 N         137.5316  138.7513  161.8879 N.pl3   1  UNL1       -0.3546
     25 H         137.0881  139.0142  161.0492 H       1  UNL1        0.1424
     26 H         137.7252  137.8026  162.0660 H       1  UNL1        0.1424
     27 N         137.7031  143.7321  163.3584 N.pl3   1  UNL1       -0.2187
     28 H         136.7884  144.0778  163.4730 H       1  UNL1        0.1734
     29 S         138.8017  144.6509  162.9125 S.O2    1  UNL1        0.0558
     30 C         139.9002  145.5697  162.4665 C.3     1  UNL1        0.1996
     31 O         138.6148  144.1879  161.4980 O.2     1  UNL1       -0.1544
     32 O         138.9886  145.1139  164.3269 O.2     1  UNL1       -0.1544
@<TRIPOS>BOND
     1    13    14    1
     2    14     7    1
     3     7     8   ar
     4     8     9   ar
     5     9    10   ar
     6    10     6    1
     7     6     5    1
     8     5     3    1
     9     3     4    1
    10     3     2    1
    11     2     1    1
    12     1    17    1
    13    17    18    1
    14    18    19   ar
    15    19    20   ar
    16    20    21   ar
    17    21    27    1
    18    27    29    1
    19    29    30    1
    20    29    31    2
    21    29    32    2
    22    21    22   ar
    23    22    23   ar
    24    23    24    1
    25    10    11   ar
    26    11    12   ar
    27    12    15    1
    28    15    16    1
    29    12     7   ar
    30    23    18   ar
    31    27    28    1
    32    24    25    1
    33    24    26    1
@<TRIPOS>MOLECULE
*****
 32 33 0 0 0
SMALL
GASTEIGER

@<TRIPOS>ATOM
      1 C         139.9463  137.5548  164.7451 C.3     1  UNL1        0.2227
      2 C         141.0716  137.0182  163.9109 C.3     1  UNL1        0.1201
      3 N         142.0149  137.9629  163.2270 N.3     1  UNL1       -0.2681
      4 C         142.1569  137.9312  161.7341 C.3     1  UNL1        0.0897
      5 C         142.8163  138.9392  164.0361 C.3     1  UNL1        0.0769
      6 C         142.3894  140.3749  164.1169 C.3     1  UNL1        0.0438
      7 C         140.6349  141.9893  167.9334 C.ar    1  UNL1        0.1724
      8 C         140.6563  142.8407  166.6987 C.ar    1  UNL1        0.0397
      9 C         141.2411  142.3026  165.4265 C.ar    1  UNL1       -0.0009
     10 C         141.8046  140.9130  165.3890 C.ar    1  UNL1       -0.0176
     11 C         141.7832  140.0615  166.6237 C.ar    1  UNL1        0.0358
     12 C         141.1983  140.5997  167.8959 C.ar    1  UNL1        0.1721
     13 C         140.6657  143.7250  169.8662 C.3     1  UNL1        0.2526
     14 O         140.0500  142.5274  169.2055 O.3     1  UNL1       -0.4684
     15 O         141.1770  139.7481  169.1306 O.3     1  UNL1       -0.4684
     16 C         142.1895  139.9728  170.2142 C.3     1  UNL1        0.2526
     17 O         138.6532  137.9494  164.0955 O.3     1  UNL1       -0.4727
     18 C         138.4129  139.3791  163.7105 C.ar    1  UNL1        0.1514
     19 C         138.1480  140.4069  164.7704 C.ar    1  UNL1        0.0395
     20 C         137.9078  141.8366  164.3853 C.ar    1  UNL1        0.0190
     21 C         137.9323  142.2385  162.9404 C.ar    1  UNL1        0.0658
     22 C         138.1972  141.2106  161.8804 C.ar    1  UNL1        0.0330
     23 C         138.4375  139.7809  162.2654 C.ar    1  UNL1        0.0773
     24 N         138.7023  138.7531  161.2056 N.pl3   1  UNL1       -0.3546
     25 H         138.7185  139.0169  160.2572 H       1  UNL1        0.1424
     26 H         138.8600  137.8148  161.4583 H       1  UNL1        0.1424
     27 N         137.6921  143.6681  162.5554 N.pl3   1  UNL1       -0.2187
     28 H         136.7811  143.9738  162.3411 H       1  UNL1        0.1734
     29 S         138.8397  144.6321  162.4969 S.O2    1  UNL1        0.0558
     30 C         139.9874  145.5961  162.4383 C.3     1  UNL1        0.1996
     31 O         139.0097  144.3410  161.0353 O.2     1  UNL1       -0.1544
     32 O         138.6698  144.9233  163.9584 O.2     1  UNL1       -0.1544
@<TRIPOS>BOND
     1    13    14    1
     2    14     7    1
     3     7     8   ar
     4     8     9   ar
     5     9    10   ar
     6    10     6    1
     7     6     5    1
     8     5     3    1
     9     3     4    1
    10     3     2    1
    11     2     1    1
    12     1    17    1
    13    17    18    1
    14    18    19   ar
    15    19    20   ar
    16    20    21   ar
    17    21    27    1
    18    27    29    1
    19    29    30    1
    20    29    31    2
    21    29    32    2
    22    21    22   ar
    23    22    23   ar
    24    23    24    1
    25    10    11   ar
    26    11    12   ar
    27    12    15    1
    28    15    16    1
    29    12     7   ar
    30    23    18   ar
    31    27    28    1
    32    24    25    1
    33    24    26    1
@<TRIPOS>MOLECULE
*****
 32 33 0 0 0
SMALL
GASTEIGER

@<TRIPOS>ATOM
      1 C         140.0452  137.3135  163.1737 C.3     1  UNL1        0.2227
      2 C         141.0188  138.2331  162.4980 C.3     1  UNL1        0.1201
      3 N         142.4413  138.2966  162.9694 N.3     1  UNL1       -0.2681
      4 C         142.7429  138.6223  164.4023 C.3     1  UNL1        0.0897
      5 C         143.5624  138.0346  162.0079 C.3     1  UNL1        0.0769
      6 C         143.9427  139.0758  160.9974 C.3     1  UNL1        0.0438
      7 C         144.2577  143.3936  162.2251 C.ar    1  UNL1        0.1724
      8 C         144.9984  142.3395  162.9933 C.ar    1  UNL1        0.0397
      9 C         144.8934  140.9002  162.5841 C.ar    1  UNL1       -0.0009
     10 C         144.0477  140.5151  161.4066 C.ar    1  UNL1       -0.0176
     11 C         143.3070  141.5692  160.6384 C.ar    1  UNL1        0.0358
     12 C         143.4121  143.0085  161.0477 C.ar    1  UNL1        0.1721
     13 C         143.5026  145.3619  163.7435 C.3     1  UNL1        0.2526
     14 O         144.3627  144.8329  162.6344 O.3     1  UNL1       -0.4684
     15 O         142.6713  144.0626  160.2794 O.3     1  UNL1       -0.4684
     16 C         141.2611  143.8137  159.8332 C.3     1  UNL1        0.2526
     17 O         138.8051  137.8696  163.8086 O.3     1  UNL1       -0.4727
     18 C         138.6274  139.3537  163.9336 C.ar    1  UNL1        0.1514
     19 C         139.1520  140.0729  165.1409 C.ar    1  UNL1        0.0395
     20 C         138.9742  141.5570  165.2659 C.ar    1  UNL1        0.0190
     21 C         138.2719  142.3221  164.1836 C.ar    1  UNL1        0.0658
     22 C         137.7473  141.6030  162.9762 C.ar    1  UNL1        0.0330
     23 C         137.9250  140.1188  162.8512 C.ar    1  UNL1        0.0773
     24 N         137.4004  139.3997  161.6439 N.pl3   1  UNL1       -0.3546
     25 H         136.9394  139.9018  160.9336 H       1  UNL1        0.1424
     26 H         137.5171  138.4255  161.5619 H       1  UNL1        0.1424
     27 N         138.0942  143.8063  164.3086 N.pl3   1  UNL1       -0.2187
     28 H         137.4571  144.1723  164.9640 H       1  UNL1        0.1734
     29 S         138.8870  144.7328  163.4352 S.O2    1  UNL1        0.0558
     30 C         139.6798  145.6593  162.5618 C.3     1  UNL1        0.1996
     31 O         140.0285  144.6715  164.4064 O.2     1  UNL1       -0.1544
     32 O         137.7455  144.7940  162.4640 O.2     1  UNL1       -0.1544
@<TRIPOS>BOND
     1    13    14    1
     2    14     7    1
     3     7     8   ar
     4     8     9   ar
     5     9    10   ar
     6    10     6    1
     7     6     5    1
     8     5     3    1
     9     3     4    1
    10     3     2    1
    11     2     1    1
    12     1    17    1
    13    17    18    1
    14    18    19   ar
    15    19    20   ar
    16    20    21   ar
    17    21    27    1
    18    27    29    1
    19    29    30    1
    20    29    31    2
    21    29    32    2
    22    21    22   ar
    23    22    23   ar
    24    23    24    1
    25    10    11   ar
    26    11    12   ar
    27    12    15    1
    28    15    16    1
    29    12     7   ar
    30    23    18   ar
    31    27    28    1
    32    24    25    1
    33    24    26    1
@<TRIPOS>MOLECULE
*****
 32 33 0 0 0
SMALL
GASTEIGER

@<TRIPOS>ATOM
      1 C         144.3036  139.1051  163.7782 C.3     1  UNL1        0.2227
      2 C         144.2769  139.9890  162.5667 C.3     1  UNL1        0.1201
      3 N         144.8911  141.3564  162.6222 N.3     1  UNL1       -0.2681
      4 C         144.8575  142.2434  161.4129 C.3     1  UNL1        0.0897
      5 C         145.5390  141.8368  163.8869 C.3     1  UNL1        0.0769
      6 C         144.7241  142.5557  164.9208 C.3     1  UNL1        0.0438
      7 C         140.9641  144.7164  163.7191 C.ar    1  UNL1        0.1724
      8 C         142.2895  145.4135  163.6342 C.ar    1  UNL1        0.0397
      9 C         143.5428  144.6933  164.0347 C.ar    1  UNL1       -0.0009
     10 C         143.4708  143.2759  164.5202 C.ar    1  UNL1       -0.0176
     11 C         142.1454  142.5788  164.6052 C.ar    1  UNL1        0.0358
     12 C         140.8920  143.2990  164.2047 C.ar    1  UNL1        0.1721
     13 C         139.5924  146.0290  161.9457 C.3     1  UNL1        0.2526
     14 O         139.7108  145.4366  163.3186 O.3     1  UNL1       -0.4684
     15 O         139.5666  142.6018  164.2896 O.3     1  UNL1       -0.4684
     16 C         138.9423  142.0244  163.0540 C.3     1  UNL1        0.2526
     17 O         143.0379  138.4674  164.2694 O.3     1  UNL1       -0.4727
     18 C         142.2772  139.0871  165.4040 C.ar    1  UNL1        0.1514
     19 C         143.0092  139.5820  166.6161 C.ar    1  UNL1        0.0395
     20 C         142.2484  140.2017  167.7506 C.ar    1  UNL1        0.0190
     21 C         140.7557  140.3265  167.6731 C.ar    1  UNL1        0.0658
     22 C         140.0236  139.8317  166.4609 C.ar    1  UNL1        0.0330
     23 C         140.7843  139.2120  165.3264 C.ar    1  UNL1        0.0773
     24 N         140.0524  138.7171  164.1143 N.pl3   1  UNL1       -0.3546
     25 H         139.0726  138.7991  164.0633 H       1  UNL1        0.1424
     26 H         140.5517  138.3104  163.3696 H       1  UNL1        0.1424
     27 N         139.9949  140.9462  168.8076 N.pl3   1  UNL1       -0.2187
     28 H         139.2273  140.4728  169.2023 H       1  UNL1        0.1734
     29 S         140.4037  142.2873  169.3408 S.O2    1  UNL1        0.0558
     30 C         140.8126  143.6284  169.8740 C.3     1  UNL1        0.1996
     31 O         140.2402  142.8810  167.9731 O.2     1  UNL1       -0.1544
     32 O         140.5673  141.6936  170.7086 O.2     1  UNL1       -0.1544
@<TRIPOS>BOND
     1    13    14    1
     2    14     7    1
     3     7     8   ar
     4     8     9   ar
     5     9    10   ar
     6    10     6    1
     7     6     5    1
     8     5     3    1
     9     3     4    1
    10     3     2    1
    11     2     1    1
    12     1    17    1
    13    17    18    1
    14    18    19   ar
    15    19    20   ar
    16    20    21   ar
    17    21    27    1
    18    27    29    1
    19    29    30    1
    20    29    31    2
    21    29    32    2
    22    21    22   ar
    23    22    23   ar
    24    23    24    1
    25    10    11   ar
    26    11    12   ar
    27    12    15    1
    28    15    16    1
    29    12     7   ar
    30    23    18   ar
    31    27    28    1
    32    24    25    1
    33    24    26    1
@<TRIPOS>MOLECULE
*****
 32 33 0 0 0
SMALL
GASTEIGER

@<TRIPOS>ATOM
      1 C         143.9608  142.2023  163.3630 C.3     1  UNL1        0.2227
      2 C         142.7635  142.9673  162.8822 C.3     1  UNL1        0.1201
      3 N         142.5417  144.3784  163.3400 N.3     1  UNL1       -0.2681
      4 C         143.6534  145.1346  164.0051 C.3     1  UNL1        0.0897
      5 C         141.2082  145.0332  163.1328 C.3     1  UNL1        0.0769
      6 C         140.1198  144.8567  164.1498 C.3     1  UNL1        0.0438
      7 C         138.5277  140.7454  165.0510 C.ar    1  UNL1        0.1724
      8 C         139.4395  141.4272  166.0275 C.ar    1  UNL1        0.0397
      9 C         139.9702  142.7977  165.7271 C.ar    1  UNL1       -0.0009
     10 C         139.5891  143.4863  164.4502 C.ar    1  UNL1       -0.0176
     11 C         138.6773  142.8044  163.4737 C.ar    1  UNL1        0.0358
     12 C         138.1466  141.4340  163.7741 C.ar    1  UNL1        0.1721
     13 C         138.0676  138.8328  166.7482 C.3     1  UNL1        0.2526
     14 O         137.9970  139.3749  165.3514 O.3     1  UNL1       -0.4684
     15 O         137.2348  140.7521  162.7974 O.3     1  UNL1       -0.4684
     16 C         137.7415  140.3718  161.4378 C.3     1  UNL1        0.2526
     17 O         143.7776  140.9156  164.1119 O.3     1  UNL1       -0.4727
     18 C         143.3350  140.9383  165.5449 C.ar    1  UNL1        0.1514
     19 C         143.4020  142.2144  166.3304 C.ar    1  UNL1        0.0395
     20 C         142.9593  142.2371  167.7634 C.ar    1  UNL1        0.0190
     21 C         142.4497  140.9837  168.4109 C.ar    1  UNL1        0.0658
     22 C         142.3826  139.7076  167.6254 C.ar    1  UNL1        0.0330
     23 C         142.8253  139.6849  166.1924 C.ar    1  UNL1        0.0773
     24 N         142.7582  138.4088  165.4069 N.pl3   1  UNL1       -0.3546
     25 H         142.4237  137.5861  165.8318 H       1  UNL1        0.1424
     26 H         143.0488  138.3939  164.4663 H       1  UNL1        0.1424
     27 N         142.0070  141.0065  169.8440 N.pl3   1  UNL1       -0.2187
     28 H         142.4322  140.4081  170.5000 H       1  UNL1        0.1734
     29 S         140.9167  141.9409  170.2774 S.O2    1  UNL1        0.0558
     30 C         139.8263  142.8753  170.7108 C.3     1  UNL1        0.1996
     31 O         139.9278  141.1681  169.4559 O.2     1  UNL1       -0.1544
     32 O         141.9055  142.7137  171.0989 O.2     1  UNL1       -0.1544
@<TRIPOS>BOND
     1    13    14    1
     2    14     7    1
     3     7     8   ar
     4     8     9   ar
     5     9    10   ar
     6    10     6    1
     7     6     5    1
     8     5     3    1
     9     3     4    1
    10     3     2    1
    11     2     1    1
    12     1    17    1
    13    17    18    1
    14    18    19   ar
    15    19    20   ar
    16    20    21   ar
    17    21    27    1
    18    27    29    1
    19    29    30    1
    20    29    31    2
    21    29    32    2
    22    21    22   ar
    23    22    23   ar
    24    23    24    1
    25    10    11   ar
    26    11    12   ar
    27    12    15    1
    28    15    16    1
    29    12     7   ar
    30    23    18   ar
    31    27    28    1
    32    24    25    1
    33    24    26    1
