@<TRIPOS>MOLECULE
*****
 38 42 0 0 0
SMALL
GASTEIGER

@<TRIPOS>ATOM
      1 C         141.2801  139.2125  157.4175 C.ar    1  UNL1        0.0104
      2 C         141.5939  137.7603  157.2116 C.ar    1  UNL1        0.0078
      3 C         142.8893  137.3562  156.5723 C.ar    1  UNL1        0.1095
      4 C         143.8708  138.4043  156.1389 C.ar    1  UNL1        0.2691
      5 O         145.1662  138.0002  155.4995 O.2     1  UNL1       -0.2665
      6 N         143.5570  139.8567  156.3448 N.ar    1  UNL1       -0.2733
      7 C         144.5386  140.9048  155.9114 C.ar    1  UNL1        0.0829
      8 C         144.2248  142.3571  156.1173 C.ar    1  UNL1        0.0191
      9 C         142.9294  142.7612  156.7566 C.ar    1  UNL1        0.0030
     10 C         141.9479  141.7130  157.1900 C.ar    1  UNL1        0.0174
     11 C         142.2617  140.2608  156.9841 C.ar    1  UNL1        0.0642
     12 C         143.2031  135.9038  156.3663 C.2     1  UNL1        0.2505
     13 O         143.4906  135.3868  154.9879 O.2     1  UNL1       -0.2700
     14 N         143.2293  134.9687  157.5388 N.am    1  UNL1       -0.3000
     15 H         143.0407  135.3080  158.4435 H       1  UNL1        0.1498
     16 C         143.5431  133.5164  157.3329 C.3     1  UNL1        0.0986
     17 C         144.7838  132.9246  157.9335 C.3     1  UNL1        0.0220
     18 C         145.0975  131.4724  157.7275 C.3     1  UNL1        0.0019
     19 C         144.1707  130.6118  156.9210 C.3     1  UNL1        0.0026
     20 C         142.9301  131.2036  156.3204 C.3     1  UNL1        0.0309
     21 C         142.6163  132.6559  156.5263 C.3     1  UNL1        0.1283
     22 O         141.3757  133.2476  155.9257 O.3     1  UNL1       -0.3828
     23 H         140.8925  132.5610  155.4399 H       1  UNL1        0.2104
     24 C         139.9847  139.6166  158.0568 C.3     1  UNL1        0.1007
     25 N         139.6355  139.7548  162.5411 N.pl3   1  UNL1       -0.3046
     26 C         139.4658  138.4531  161.8154 C.3     1  UNL1        0.1081
     27 C         139.5822  138.4070  160.3206 C.3     1  UNL1        0.0941
     28 N         139.8683  139.6627  159.5515 N.3     1  UNL1       -0.2659
     29 C         140.0381  140.9644  160.2773 C.3     1  UNL1        0.0941
     30 C         139.9216  141.0105  161.7721 C.3     1  UNL1        0.1081
     31 C         139.2863  139.8930  167.0254 C.ar    1  UNL1        0.0685
     32 C         140.1963  140.8501  166.3142 C.ar    1  UNL1        0.0115
     33 C         140.3128  140.8040  164.8193 C.ar    1  UNL1        0.0152
     34 C         139.5191  139.8009  164.0358 C.ar    1  UNL1        0.0480
     35 C         138.6091  138.8438  164.7471 C.ar    1  UNL1        0.0152
     36 C         138.4927  138.8899  166.2419 C.ar    1  UNL1        0.0115
     37 N         139.0535  139.9852  170.0149 N.1     1  UNL1       -0.1908
     38 C         139.1699  139.9391  168.5201 C.1     1  UNL1        0.1004
@<TRIPOS>BOND
     1    37    38    3
     2    38    31    1
     3    31    32   ar
     4    32    33   ar
     5    33    34   ar
     6    34    25    1
     7    25    26    1
     8    26    27    1
     9    27    28    1
    10    28    24    1
    11    24     1    1
    12     1     2   ar
    13     2     3   ar
    14     3    12    1
    15    12    13    2
    16    12    14   am
    17    16    14    1
    18    16    17    1
    19    17    18    1
    20    18    19    1
    21    19    20    1
    22    20    21    1
    23    21    22    1
    24     3     4   ar
    25     4     5    2
    26     4     6   ar
    27     6     7   ar
    28     7     8   ar
    29     8     9   ar
    30     9    10   ar
    31    10    11   ar
    32    28    29    1
    33    29    30    1
    34    34    35   ar
    35    35    36   ar
    36    36    31   ar
    37    30    25    1
    38    11     1   ar
    39    21    16    1
    40    11     6   ar
    41    14    15    1
    42    22    23    1
@<TRIPOS>MOLECULE
*****
 38 42 0 0 0
SMALL
GASTEIGER

@<TRIPOS>ATOM
      1 C         143.0364  142.5534  158.9718 C.ar    1  UNL1        0.0104
      2 C         144.3532  142.9174  158.3527 C.ar    1  UNL1        0.0078
      3 C         145.0841  141.9200  157.5036 C.ar    1  UNL1        0.1095
      4 C         144.4980  140.5585  157.2736 C.ar    1  UNL1        0.2691
      5 O         145.2288  139.5611  156.4245 O.2     1  UNL1       -0.2665
      6 N         143.1810  140.1945  157.8927 N.ar    1  UNL1       -0.2733
      7 C         142.5950  138.8330  157.6627 C.ar    1  UNL1        0.0829
      8 C         141.2781  138.4691  158.2818 C.ar    1  UNL1        0.0191
      9 C         140.5473  139.4665  159.1309 C.ar    1  UNL1        0.0030
     10 C         141.1334  140.8280  159.3609 C.ar    1  UNL1        0.0174
     11 C         142.4502  141.1919  158.7418 C.ar    1  UNL1        0.0642
     12 C         146.4010  142.2840  156.8845 C.2     1  UNL1        0.2505
     13 O         147.3699  143.1478  157.6363 O.2     1  UNL1       -0.2700
     14 N         146.7490  141.7843  155.5137 N.am    1  UNL1       -0.3000
     15 H         146.1131  141.2173  155.0203 H       1  UNL1        0.1498
     16 C         148.0659  142.1483  154.8947 C.3     1  UNL1        0.0986
     17 C         149.3262  141.4884  155.3704 C.3     1  UNL1        0.0220
     18 C         150.6431  141.8525  154.7513 C.3     1  UNL1        0.0019
     19 C         150.6997  142.8764  153.6566 C.3     1  UNL1        0.0026
     20 C         149.4395  143.5363  153.1810 C.3     1  UNL1        0.0309
     21 C         148.1225  143.1722  153.8000 C.3     1  UNL1        0.1283
     22 O         146.8623  143.8321  153.3243 O.3     1  UNL1       -0.3828
     23 H         147.0741  144.4629  152.6186 H       1  UNL1        0.2104
     24 C         142.3056  143.5509  159.8209 C.3     1  UNL1        0.1007
     25 N         142.0459  142.9538  164.2736 N.pl3   1  UNL1       -0.3046
     26 C         143.2664  142.5042  163.5265 C.3     1  UNL1        0.1081
     27 C         143.3530  142.7032  162.0423 C.3     1  UNL1        0.0941
     28 N         142.2190  143.3519  161.3051 N.3     1  UNL1       -0.2659
     29 C         140.9984  143.8015  162.0522 C.3     1  UNL1        0.0941
     30 C         140.9119  143.6024  163.5365 C.3     1  UNL1        0.1081
     31 C         141.7862  142.3568  168.7262 C.ar    1  UNL1        0.0685
     32 C         140.5482  142.6650  167.9374 C.ar    1  UNL1        0.0115
     33 C         140.6347  142.8641  166.4531 C.ar    1  UNL1        0.0152
     34 C         141.9593  142.7548  165.7578 C.ar    1  UNL1        0.0480
     35 C         143.1973  142.4465  166.5466 C.ar    1  UNL1        0.0152
     36 C         143.1108  142.2475  168.0308 C.ar    1  UNL1        0.0115
     37 N         141.6130  141.9588  171.6947 N.1     1  UNL1       -0.1908
     38 C         141.6996  142.1577  170.2104 C.1     1  UNL1        0.1004
@<TRIPOS>BOND
     1    37    38    3
     2    38    31    1
     3    31    32   ar
     4    32    33   ar
     5    33    34   ar
     6    34    25    1
     7    25    26    1
     8    26    27    1
     9    27    28    1
    10    28    24    1
    11    24     1    1
    12     1     2   ar
    13     2     3   ar
    14     3    12    1
    15    12    13    2
    16    12    14   am
    17    16    14    1
    18    16    17    1
    19    17    18    1
    20    18    19    1
    21    19    20    1
    22    20    21    1
    23    21    22    1
    24     3     4   ar
    25     4     5    2
    26     4     6   ar
    27     6     7   ar
    28     7     8   ar
    29     8     9   ar
    30     9    10   ar
    31    10    11   ar
    32    28    29    1
    33    29    30    1
    34    34    35   ar
    35    35    36   ar
    36    36    31   ar
    37    30    25    1
    38    11     1   ar
    39    21    16    1
    40    11     6   ar
    41    14    15    1
    42    22    23    1
@<TRIPOS>MOLECULE
*****
 38 42 0 0 0
SMALL
GASTEIGER

@<TRIPOS>ATOM
      1 C         140.5325  140.0182  159.1706 C.ar    1  UNL1        0.0104
      2 C         140.4830  138.7229  158.4158 C.ar    1  UNL1        0.0078
      3 C         141.6611  138.2872  157.5959 C.ar    1  UNL1        0.1095
      4 C         142.8886  139.1468  157.5307 C.ar    1  UNL1        0.2691
      5 O         144.0667  138.7111  156.7107 O.2     1  UNL1       -0.2665
      6 N         142.9381  140.4422  158.2855 N.ar    1  UNL1       -0.2733
      7 C         144.1656  141.3018  158.2203 C.ar    1  UNL1        0.0829
      8 C         144.2150  142.5971  158.9751 C.ar    1  UNL1        0.0191
      9 C         143.0370  143.0328  159.7951 C.ar    1  UNL1        0.0030
     10 C         141.8095  142.1732  159.8603 C.ar    1  UNL1        0.0174
     11 C         141.7600  140.8779  159.1055 C.ar    1  UNL1        0.0642
     12 C         141.6116  136.9919  156.8411 C.2     1  UNL1        0.2505
     13 O         140.3710  136.6082  156.0903 O.2     1  UNL1       -0.2700
     14 N         142.8027  136.0802  156.8370 N.am    1  UNL1       -0.3000
     15 H         143.6170  136.3320  157.3298 H       1  UNL1        0.1498
     16 C         142.7532  134.7849  156.0822 C.3     1  UNL1        0.0986
     17 C         142.5117  134.7883  154.6018 C.3     1  UNL1        0.0220
     18 C         142.4621  133.4930  153.8470 C.3     1  UNL1        0.0019
     19 C         142.6541  132.1943  154.5726 C.3     1  UNL1        0.0026
     20 C         142.8956  132.1909  156.0530 C.3     1  UNL1        0.0309
     21 C         142.9452  133.4862  156.8079 C.3     1  UNL1        0.1283
     22 O         143.1867  133.4828  158.2882 O.3     1  UNL1       -0.3828
     23 H         143.2889  132.5690  158.5971 H       1  UNL1        0.2104
     24 C         139.3544  140.4539  159.9906 C.3     1  UNL1        0.1007
     25 N         139.7938  141.0303  164.4318 N.pl3   1  UNL1       -0.3046
     26 C         138.9591  141.9849  163.6306 C.3     1  UNL1        0.1081
     27 C         138.8126  141.7928  162.1502 C.3     1  UNL1        0.0941
     28 N         139.5009  140.6460  161.4710 N.3     1  UNL1       -0.2659
     29 C         140.3356  139.6914  162.2722 C.3     1  UNL1        0.0941
     30 C         140.4821  139.8836  163.7527 C.3     1  UNL1        0.1081
     31 C         140.2333  141.6067  168.8730 C.ar    1  UNL1        0.0685
     32 C         139.6740  140.3231  168.3351 C.ar    1  UNL1        0.0115
     33 C         139.5275  140.1309  166.8546 C.ar    1  UNL1        0.0152
     34 C         139.9403  141.2224  165.9122 C.ar    1  UNL1        0.0480
     35 C         140.4996  142.5061  166.4502 C.ar    1  UNL1        0.0152
     36 C         140.6461  142.6982  167.9306 C.ar    1  UNL1        0.0115
     37 N         140.5263  141.9910  171.8339 N.1     1  UNL1       -0.1908
     38 C         140.3797  141.7989  170.3534 C.1     1  UNL1        0.1004
@<TRIPOS>BOND
     1    37    38    3
     2    38    31    1
     3    31    32   ar
     4    32    33   ar
     5    33    34   ar
     6    34    25    1
     7    25    26    1
     8    26    27    1
     9    27    28    1
    10    28    24    1
    11    24     1    1
    12     1     2   ar
    13     2     3   ar
    14     3    12    1
    15    12    13    2
    16    12    14   am
    17    16    14    1
    18    16    17    1
    19    17    18    1
    20    18    19    1
    21    19    20    1
    22    20    21    1
    23    21    22    1
    24     3     4   ar
    25     4     5    2
    26     4     6   ar
    27     6     7   ar
    28     7     8   ar
    29     8     9   ar
    30     9    10   ar
    31    10    11   ar
    32    28    29    1
    33    29    30    1
    34    34    35   ar
    35    35    36   ar
    36    36    31   ar
    37    30    25    1
    38    11     1   ar
    39    21    16    1
    40    11     6   ar
    41    14    15    1
    42    22    23    1
@<TRIPOS>MOLECULE
*****
 38 42 0 0 0
SMALL
GASTEIGER

@<TRIPOS>ATOM
      1 C         142.1459  138.8312  158.2265 C.ar    1  UNL1        0.0104
      2 C         142.7122  137.5412  157.7116 C.ar    1  UNL1        0.0078
      3 C         141.9929  136.7828  156.6357 C.ar    1  UNL1        0.1095
      4 C         140.7073  137.3144  156.0748 C.ar    1  UNL1        0.2691
      5 O         139.9880  136.5560  154.9990 O.2     1  UNL1       -0.2665
      6 N         140.1410  138.6045  156.5898 N.ar    1  UNL1       -0.2733
      7 C         138.8554  139.1360  156.0288 C.ar    1  UNL1        0.0829
      8 C         138.2891  140.4260  156.5438 C.ar    1  UNL1        0.0191
      9 C         139.0084  141.1844  157.6196 C.ar    1  UNL1        0.0030
     10 C         140.2940  140.6529  158.1805 C.ar    1  UNL1        0.0174
     11 C         140.8602  139.3629  157.6656 C.ar    1  UNL1        0.0642
     12 C         142.5592  135.4928  156.1208 C.2     1  UNL1        0.2505
     13 O         144.0368  135.3572  155.9009 O.2     1  UNL1       -0.2700
     14 N         141.6480  134.3384  155.8259 N.am    1  UNL1       -0.3000
     15 H         140.6782  134.4274  155.9702 H       1  UNL1        0.1498
     16 C         142.2144  133.0484  155.3110 C.3     1  UNL1        0.0986
     17 C         142.2109  132.7625  153.8384 C.3     1  UNL1        0.0220
     18 C         142.7773  131.4725  153.3235 C.3     1  UNL1        0.0019
     19 C         143.3471  130.4684  154.2811 C.3     1  UNL1        0.0026
     20 C         143.3507  130.7542  155.7536 C.3     1  UNL1        0.0309
     21 C         142.7843  132.0443  156.2685 C.3     1  UNL1        0.1283
     22 O         142.7878  132.3301  157.7410 O.3     1  UNL1       -0.3828
     23 H         143.1885  131.5842  158.2142 H       1  UNL1        0.2104
     24 C         142.8652  139.5896  159.3023 C.3     1  UNL1        0.1007
     25 N         141.1711  139.7365  163.4687 N.pl3   1  UNL1       -0.3046
     26 C         141.6905  140.9882  162.8257 C.3     1  UNL1        0.1081
     27 C         142.2552  140.9393  161.4369 C.3     1  UNL1        0.0941
     28 N         142.3005  139.6386  160.6911 N.3     1  UNL1       -0.2659
     29 C         141.7811  138.3868  161.3341 C.3     1  UNL1        0.0941
     30 C         141.2164  138.4358  162.7229 C.3     1  UNL1        0.1081
     31 C         139.4770  139.8833  167.6350 C.ar    1  UNL1        0.0685
     32 C         138.6423  139.3599  166.5040 C.ar    1  UNL1        0.0115
     33 C         139.2070  139.3109  165.1152 C.ar    1  UNL1        0.0152
     34 C         140.6064  139.7854  164.8574 C.ar    1  UNL1        0.0480
     35 C         141.4412  140.3089  165.9885 C.ar    1  UNL1        0.0152
     36 C         140.8765  140.3578  167.3773 C.ar    1  UNL1        0.0115
     37 N         138.3476  139.9811  170.4126 N.1     1  UNL1       -0.1908
     38 C         138.9124  139.9322  169.0238 C.1     1  UNL1        0.1004
@<TRIPOS>BOND
     1    37    38    3
     2    38    31    1
     3    31    32   ar
     4    32    33   ar
     5    33    34   ar
     6    34    25    1
     7    25    26    1
     8    26    27    1
     9    27    28    1
    10    28    24    1
    11    24     1    1
    12     1     2   ar
    13     2     3   ar
    14     3    12    1
    15    12    13    2
    16    12    14   am
    17    16    14    1
    18    16    17    1
    19    17    18    1
    20    18    19    1
    21    19    20    1
    22    20    21    1
    23    21    22    1
    24     3     4   ar
    25     4     5    2
    26     4     6   ar
    27     6     7   ar
    28     7     8   ar
    29     8     9   ar
    30     9    10   ar
    31    10    11   ar
    32    28    29    1
    33    29    30    1
    34    34    35   ar
    35    35    36   ar
    36    36    31   ar
    37    30    25    1
    38    11     1   ar
    39    21    16    1
    40    11     6   ar
    41    14    15    1
    42    22    23    1
@<TRIPOS>MOLECULE
*****
 38 42 0 0 0
SMALL
GASTEIGER

@<TRIPOS>ATOM
      1 C         141.9599  139.4553  157.3944 C.ar    1  UNL1        0.0104
      2 C         142.7447  138.1998  157.1540 C.ar    1  UNL1        0.0078
      3 C         142.1809  137.1186  156.2803 C.ar    1  UNL1        0.1095
      4 C         140.8324  137.2929  155.6471 C.ar    1  UNL1        0.2691
      5 O         140.2686  136.2117  154.7735 O.2     1  UNL1       -0.2665
      6 N         140.0475  138.5485  155.8875 N.ar    1  UNL1       -0.2733
      7 C         138.6990  138.7228  155.2542 C.ar    1  UNL1        0.0829
      8 C         137.9142  139.9783  155.4946 C.ar    1  UNL1        0.0191
      9 C         138.4780  141.0594  156.3682 C.ar    1  UNL1        0.0030
     10 C         139.8265  140.8851  157.0015 C.ar    1  UNL1        0.0174
     11 C         140.6113  139.6296  156.7611 C.ar    1  UNL1        0.0642
     12 C         142.9657  135.8630  156.0400 C.2     1  UNL1        0.2505
     13 O         144.3833  135.9457  155.5564 O.2     1  UNL1       -0.2700
     14 N         142.3331  134.5250  156.2832 N.am    1  UNL1       -0.3000
     15 H         141.4027  134.4707  156.6005 H       1  UNL1        0.1498
     16 C         143.1179  133.2695  156.0428 C.3     1  UNL1        0.0986
     17 C         142.9600  132.5218  154.7520 C.3     1  UNL1        0.0220
     18 C         143.7448  131.2664  154.5116 C.3     1  UNL1        0.0019
     19 C         144.6876  130.7585  155.5620 C.3     1  UNL1        0.0026
     20 C         144.8456  131.5062  156.8527 C.3     1  UNL1        0.0309
     21 C         144.0607  132.7617  157.0931 C.3     1  UNL1        0.1283
     22 O         144.2186  133.5093  158.3839 O.3     1  UNL1       -0.3828
     23 H         144.8608  133.0498  158.9472 H       1  UNL1        0.2104
     24 C         142.5237  140.5364  158.2680 C.3     1  UNL1        0.1007
     25 N         142.6146  140.0011  162.7351 N.pl3   1  UNL1       -0.3046
     26 C         141.4121  140.6103  162.0770 C.3     1  UNL1        0.1081
     27 C         141.3818  140.7887  160.5880 C.3     1  UNL1        0.0941
     28 N         142.5540  140.3580  159.7570 N.3     1  UNL1       -0.2659
     29 C         143.7564  139.7489  160.4150 C.3     1  UNL1        0.0941
     30 C         143.7867  139.5704  161.9041 C.3     1  UNL1        0.1081
     31 C         142.7056  139.4657  167.2022 C.ar    1  UNL1        0.0685
     32 C         141.9131  140.5863  166.5972 C.ar    1  UNL1        0.0115
     33 C         141.8827  140.7648  165.1081 C.ar    1  UNL1        0.0152
     34 C         142.6449  139.8227  164.2241 C.ar    1  UNL1        0.0480
     35 C         143.4374  138.7020  164.8292 C.ar    1  UNL1        0.0152
     36 C         143.4677  138.5236  166.3182 C.ar    1  UNL1        0.0115
     37 N         142.7662  139.1088  170.1803 N.1     1  UNL1       -0.1908
     38 C         142.7359  139.2873  168.6912 C.1     1  UNL1        0.1004
@<TRIPOS>BOND
     1    37    38    3
     2    38    31    1
     3    31    32   ar
     4    32    33   ar
     5    33    34   ar
     6    34    25    1
     7    25    26    1
     8    26    27    1
     9    27    28    1
    10    28    24    1
    11    24     1    1
    12     1     2   ar
    13     2     3   ar
    14     3    12    1
    15    12    13    2
    16    12    14   am
    17    16    14    1
    18    16    17    1
    19    17    18    1
    20    18    19    1
    21    19    20    1
    22    20    21    1
    23    21    22    1
    24     3     4   ar
    25     4     5    2
    26     4     6   ar
    27     6     7   ar
    28     7     8   ar
    29     8     9   ar
    30     9    10   ar
    31    10    11   ar
    32    28    29    1
    33    29    30    1
    34    34    35   ar
    35    35    36   ar
    36    36    31   ar
    37    30    25    1
    38    11     1   ar
    39    21    16    1
    40    11     6   ar
    41    14    15    1
    42    22    23    1
@<TRIPOS>MOLECULE
*****
 38 42 0 0 0
SMALL
GASTEIGER

@<TRIPOS>ATOM
      1 C         142.9090  141.1113  159.2540 C.ar    1  UNL1        0.0104
      2 C         143.3868  139.8206  158.6575 C.ar    1  UNL1        0.0078
      3 C         142.5302  139.0899  157.6663 C.ar    1  UNL1        0.1095
      4 C         141.1959  139.6500  157.2717 C.ar    1  UNL1        0.2691
      5 O         140.3393  138.9193  156.2805 O.2     1  UNL1       -0.2665
      6 N         140.7180  140.9407  157.8682 N.ar    1  UNL1       -0.2733
      7 C         139.3836  141.5007  157.4736 C.ar    1  UNL1        0.0829
      8 C         138.9059  142.7914  158.0701 C.ar    1  UNL1        0.0191
      9 C         139.7625  143.5220  159.0612 C.ar    1  UNL1        0.0030
     10 C         141.0968  142.9620  159.4559 C.ar    1  UNL1        0.0174
     11 C         141.5746  141.6713  158.8594 C.ar    1  UNL1        0.0642
     12 C         143.0081  137.7992  157.0698 C.2     1  UNL1        0.2505
     13 O         144.2319  137.7814  156.2027 O.2     1  UNL1       -0.2700
     14 N         142.2621  136.5263  157.3405 N.am    1  UNL1       -0.3000
     15 H         141.4589  136.5380  157.9097 H       1  UNL1        0.1498
     16 C         142.7400  135.2357  156.7440 C.3     1  UNL1        0.0986
     17 C         142.5655  134.9776  155.2767 C.3     1  UNL1        0.0220
     18 C         143.0433  133.6869  154.6802 C.3     1  UNL1        0.0019
     19 C         143.6957  132.6544  155.5509 C.3     1  UNL1        0.0026
     20 C         143.8702  132.9124  157.0182 C.3     1  UNL1        0.0309
     21 C         143.3923  134.2031  157.6148 C.3     1  UNL1        0.1283
     22 O         143.5668  134.4612  159.0820 O.3     1  UNL1       -0.3828
     23 H         144.0023  133.6990  159.4948 H       1  UNL1        0.2104
     24 C         143.7656  141.8419  160.2452 C.3     1  UNL1        0.1007
     25 N         142.5702  141.9805  164.5813 N.pl3   1  UNL1       -0.3046
     26 C         142.6422  140.6646  163.8648 C.3     1  UNL1        0.1081
     27 C         143.0407  140.6184  162.4195 C.3     1  UNL1        0.0941
     28 N         143.3672  141.8881  161.6905 N.3     1  UNL1       -0.2659
     29 C         143.2952  143.2040  162.4070 C.3     1  UNL1        0.0941
     30 C         142.8967  143.2502  163.8524 C.3     1  UNL1        0.1081
     31 C         141.3748  142.1191  168.9173 C.ar    1  UNL1        0.0685
     32 C         142.8192  142.2451  168.5332 C.ar    1  UNL1        0.0115
     33 C         143.2178  142.1989  167.0878 C.ar    1  UNL1        0.0152
     34 C         142.1718  142.0267  166.0266 C.ar    1  UNL1        0.0480
     35 C         140.7272  141.9007  166.4108 C.ar    1  UNL1        0.0152
     36 C         140.3288  141.9469  167.8561 C.ar    1  UNL1        0.0115
     37 N         140.5778  142.2116  171.8081 N.1     1  UNL1       -0.1908
     38 C         140.9763  142.1653  170.3627 C.1     1  UNL1        0.1004
@<TRIPOS>BOND
     1    37    38    3
     2    38    31    1
     3    31    32   ar
     4    32    33   ar
     5    33    34   ar
     6    34    25    1
     7    25    26    1
     8    26    27    1
     9    27    28    1
    10    28    24    1
    11    24     1    1
    12     1     2   ar
    13     2     3   ar
    14     3    12    1
    15    12    13    2
    16    12    14   am
    17    16    14    1
    18    16    17    1
    19    17    18    1
    20    18    19    1
    21    19    20    1
    22    20    21    1
    23    21    22    1
    24     3     4   ar
    25     4     5    2
    26     4     6   ar
    27     6     7   ar
    28     7     8   ar
    29     8     9   ar
    30     9    10   ar
    31    10    11   ar
    32    28    29    1
    33    29    30    1
    34    34    35   ar
    35    35    36   ar
    36    36    31   ar
    37    30    25    1
    38    11     1   ar
    39    21    16    1
    40    11     6   ar
    41    14    15    1
    42    22    23    1
@<TRIPOS>MOLECULE
*****
 38 42 0 0 0
SMALL
GASTEIGER

@<TRIPOS>ATOM
      1 C         138.6140  141.2735  157.9949 C.ar    1  UNL1        0.0104
      2 C         138.3085  142.6545  157.4954 C.ar    1  UNL1        0.0078
      3 C         139.2760  143.3549  156.5879 C.ar    1  UNL1        0.1095
      4 C         140.5488  142.6743  156.1799 C.ar    1  UNL1        0.2691
      5 O         141.5163  143.3746  155.2725 O.2     1  UNL1       -0.2665
      6 N         140.8544  141.2932  156.6795 N.ar    1  UNL1       -0.2733
      7 C         142.1273  140.6126  156.2715 C.ar    1  UNL1        0.0829
      8 C         142.4327  139.2317  156.7711 C.ar    1  UNL1        0.0191
      9 C         141.4653  138.5313  157.6785 C.ar    1  UNL1        0.0030
     10 C         140.1924  139.2119  158.0865 C.ar    1  UNL1        0.0174
     11 C         139.8869  140.5928  157.5870 C.ar    1  UNL1        0.0642
     12 C         138.9704  144.7359  156.0884 C.2     1  UNL1        0.2505
     13 O         137.6868  145.0030  155.3597 O.2     1  UNL1       -0.2700
     14 N         139.9485  145.8498  156.3175 N.am    1  UNL1       -0.3000
     15 H         140.7910  145.6745  156.7958 H       1  UNL1        0.1498
     16 C         139.6430  147.2307  155.8180 C.3     1  UNL1        0.0986
     17 C         138.8457  148.1761  156.6670 C.3     1  UNL1        0.0220
     18 C         138.5401  149.5571  156.1675 C.3     1  UNL1        0.0019
     19 C         139.0319  149.9927  154.8190 C.3     1  UNL1        0.0026
     20 C         139.8292  149.0475  153.9700 C.3     1  UNL1        0.0309
     21 C         140.1347  147.6664  154.4696 C.3     1  UNL1        0.1283
     22 O         140.9320  146.7212  153.6206 O.3     1  UNL1       -0.3828
     23 H         141.1694  147.1569  152.7871 H       1  UNL1        0.2104
     24 C         137.6465  140.5732  158.9024 C.3     1  UNL1        0.1007
     25 N         138.4682  140.3443  163.3208 N.pl3   1  UNL1       -0.3046
     26 C         138.4652  141.6739  162.6264 C.3     1  UNL1        0.1081
     27 C         138.1913  141.7502  161.1536 C.3     1  UNL1        0.0941
     28 N         137.9204  140.4969  160.3752 N.3     1  UNL1       -0.2659
     29 C         137.9233  139.1673  161.0696 C.3     1  UNL1        0.0941
     30 C         138.1972  139.0910  162.5425 C.3     1  UNL1        0.1081
     31 C         139.2898  140.1154  167.7392 C.ar    1  UNL1        0.0685
     32 C         138.3930  139.1036  167.0898 C.ar    1  UNL1        0.0115
     33 C         138.1191  139.1798  165.6169 C.ar    1  UNL1        0.0152
     34 C         138.7420  140.2680  164.7936 C.ar    1  UNL1        0.0480
     35 C         139.6389  141.2799  165.4431 C.ar    1  UNL1        0.0152
     36 C         139.9128  141.2036  166.9159 C.ar    1  UNL1        0.0115
     37 N         139.8376  139.9628  170.6849 N.1     1  UNL1       -0.1908
     38 C         139.5637  140.0391  169.2120 C.1     1  UNL1        0.1004
@<TRIPOS>BOND
     1    37    38    3
     2    38    31    1
     3    31    32   ar
     4    32    33   ar
     5    33    34   ar
     6    34    25    1
     7    25    26    1
     8    26    27    1
     9    27    28    1
    10    28    24    1
    11    24     1    1
    12     1     2   ar
    13     2     3   ar
    14     3    12    1
    15    12    13    2
    16    12    14   am
    17    16    14    1
    18    16    17    1
    19    17    18    1
    20    18    19    1
    21    19    20    1
    22    20    21    1
    23    21    22    1
    24     3     4   ar
    25     4     5    2
    26     4     6   ar
    27     6     7   ar
    28     7     8   ar
    29     8     9   ar
    30     9    10   ar
    31    10    11   ar
    32    28    29    1
    33    29    30    1
    34    34    35   ar
    35    35    36   ar
    36    36    31   ar
    37    30    25    1
    38    11     1   ar
    39    21    16    1
    40    11     6   ar
    41    14    15    1
    42    22    23    1
@<TRIPOS>MOLECULE
*****
 38 42 0 0 0
SMALL
GASTEIGER

@<TRIPOS>ATOM
      1 C         140.6326  142.0482  159.0394 C.ar    1  UNL1        0.0104
      2 C         139.2795  142.2880  158.4382 C.ar    1  UNL1        0.0078
      3 C         138.6150  141.2110  157.6329 C.ar    1  UNL1        0.1095
      4 C         139.3037  139.8942  157.4287 C.ar    1  UNL1        0.2691
      5 O         138.6392  138.8172  156.6234 O.2     1  UNL1       -0.2665
      6 N         140.6569  139.6543  158.0299 N.ar    1  UNL1       -0.2733
      7 C         141.3456  138.3375  157.8257 C.ar    1  UNL1        0.0829
      8 C         142.6987  138.0977  158.4268 C.ar    1  UNL1        0.0191
      9 C         143.3632  139.1747  159.2322 C.ar    1  UNL1        0.0030
     10 C         142.6745  140.4915  159.4363 C.ar    1  UNL1        0.0174
     11 C         141.3214  140.7313  158.8352 C.ar    1  UNL1        0.0642
     12 C         137.2617  141.4508  157.0317 C.2     1  UNL1        0.2505
     13 O         136.8792  142.8258  156.5701 O.2     1  UNL1       -0.2700
     14 N         136.2912  140.3157  156.8922 N.am    1  UNL1       -0.3000
     15 H         136.5423  139.4133  157.1952 H       1  UNL1        0.1498
     16 C         134.9380  140.5556  156.2911 C.3     1  UNL1        0.0986
     17 C         134.8166  141.2729  154.9792 C.3     1  UNL1        0.0220
     18 C         133.4634  141.5128  154.3781 C.3     1  UNL1        0.0019
     19 C         132.2317  141.0354  155.0887 C.3     1  UNL1        0.0026
     20 C         132.3531  140.3182  156.4005 C.3     1  UNL1        0.0309
     21 C         133.7063  140.0782  157.0017 C.3     1  UNL1        0.1283
     22 O         133.8277  139.3610  158.3134 O.3     1  UNL1       -0.3828
     23 H         132.9440  139.1228  158.6347 H       1  UNL1        0.2104
     24 C         141.2971  143.1252  159.8447 C.3     1  UNL1        0.1007
     25 N         141.4836  142.7911  164.3284 N.pl3   1  UNL1       -0.3046
     26 C         140.3937  142.0943  163.5691 C.3     1  UNL1        0.1081
     27 C         140.3315  142.2056  162.0745 C.3     1  UNL1        0.0941
     28 N         141.3593  143.0138  161.3392 N.3     1  UNL1       -0.2659
     29 C         142.4491  143.7107  162.0985 C.3     1  UNL1        0.0941
     30 C         142.5113  143.5993  163.5932 C.3     1  UNL1        0.1081
     31 C         141.6702  142.4571  168.8121 C.ar    1  UNL1        0.0685
     32 C         140.3867  142.8488  168.1420 C.ar    1  UNL1        0.0115
     33 C         140.3244  142.9602  166.6474 C.ar    1  UNL1        0.0152
     34 C         141.5458  142.6798  165.8229 C.ar    1  UNL1        0.0480
     35 C         142.8293  142.2881  166.4931 C.ar    1  UNL1        0.0152
     36 C         142.8915  142.1767  167.9876 C.ar    1  UNL1        0.0115
     37 N         141.7946  142.2344  171.8012 N.1     1  UNL1       -0.1908
     38 C         141.7324  142.3458  170.3066 C.1     1  UNL1        0.1004
@<TRIPOS>BOND
     1    37    38    3
     2    38    31    1
     3    31    32   ar
     4    32    33   ar
     5    33    34   ar
     6    34    25    1
     7    25    26    1
     8    26    27    1
     9    27    28    1
    10    28    24    1
    11    24     1    1
    12     1     2   ar
    13     2     3   ar
    14     3    12    1
    15    12    13    2
    16    12    14   am
    17    16    14    1
    18    16    17    1
    19    17    18    1
    20    18    19    1
    21    19    20    1
    22    20    21    1
    23    21    22    1
    24     3     4   ar
    25     4     5    2
    26     4     6   ar
    27     6     7   ar
    28     7     8   ar
    29     8     9   ar
    30     9    10   ar
    31    10    11   ar
    32    28    29    1
    33    29    30    1
    34    34    35   ar
    35    35    36   ar
    36    36    31   ar
    37    30    25    1
    38    11     1   ar
    39    21    16    1
    40    11     6   ar
    41    14    15    1
    42    22    23    1
@<TRIPOS>MOLECULE
*****
 38 42 0 0 0
SMALL
GASTEIGER

@<TRIPOS>ATOM
      1 C         142.1071  140.6212  157.2322 C.ar    1  UNL1        0.0104
      2 C         141.3029  140.9193  158.4627 C.ar    1  UNL1        0.0078
      3 C         141.8861  141.7695  159.5522 C.ar    1  UNL1        0.1095
      4 C         143.2737  142.3216  159.4111 C.ar    1  UNL1        0.2691
      5 O         143.8569  143.1718  160.5006 O.2     1  UNL1       -0.2665
      6 N         144.0780  142.0235  158.1805 N.ar    1  UNL1       -0.2733
      7 C         145.4655  142.5755  158.0394 C.ar    1  UNL1        0.0829
      8 C         146.2697  142.2774  156.8089 C.ar    1  UNL1        0.0191
      9 C         145.6865  141.4272  155.7194 C.ar    1  UNL1        0.0030
     10 C         144.2989  140.8751  155.8605 C.ar    1  UNL1        0.0174
     11 C         143.4947  141.1733  157.0911 C.ar    1  UNL1        0.0642
     12 C         141.0818  142.0676  160.7828 C.2     1  UNL1        0.2505
     13 O         140.6787  140.9540  161.7033 O.2     1  UNL1       -0.2700
     14 N         140.6806  143.4793  161.0928 N.am    1  UNL1       -0.3000
     15 H         140.9452  144.2102  160.4886 H       1  UNL1        0.1498
     16 C         139.8764  143.7774  162.3233 C.3     1  UNL1        0.0986
     17 C         140.5666  144.1986  163.5867 C.3     1  UNL1        0.0220
     18 C         139.7624  144.4967  164.8172 C.3     1  UNL1        0.0019
     19 C         138.2678  144.3735  164.7845 C.3     1  UNL1        0.0026
     20 C         137.5775  143.9523  163.5212 C.3     1  UNL1        0.0309
     21 C         138.3818  143.6542  162.2905 C.3     1  UNL1        0.1283
     22 O         137.6915  143.2329  161.0272 O.3     1  UNL1       -0.3828
     23 H         136.7335  143.2037  161.1766 H       1  UNL1        0.2104
     24 C         141.5238  139.7710  156.1427 C.3     1  UNL1        0.1007
     25 N         142.1391  135.3135  156.1938 N.pl3   1  UNL1       -0.3046
     26 C         141.1501  135.9233  155.2451 C.3     1  UNL1        0.1081
     27 C         140.9450  137.4091  155.2281 C.3     1  UNL1        0.0941
     28 N         141.7289  138.2852  156.1598 N.3     1  UNL1       -0.2659
     29 C         142.7180  137.6754  157.1085 C.3     1  UNL1        0.0941
     30 C         142.9231  136.1896  157.1255 C.3     1  UNL1        0.1081
     31 C         142.7545  130.8561  156.2450 C.ar    1  UNL1        0.0685
     32 C         143.6191  131.7423  157.0917 C.ar    1  UNL1        0.0115
     33 C         143.4140  133.2282  157.0747 C.ar    1  UNL1        0.0152
     34 C         142.3443  133.8278  156.2109 C.ar    1  UNL1        0.0480
     35 C         141.4796  132.9415  155.3641 C.ar    1  UNL1        0.0152
     36 C         141.6847  131.4557  155.3811 C.ar    1  UNL1        0.0115
     37 N         143.1647  127.8845  156.2790 N.1     1  UNL1       -0.1908
     38 C         142.9596  129.3703  156.2620 C.1     1  UNL1        0.1004
@<TRIPOS>BOND
     1    37    38    3
     2    38    31    1
     3    31    32   ar
     4    32    33   ar
     5    33    34   ar
     6    34    25    1
     7    25    26    1
     8    26    27    1
     9    27    28    1
    10    28    24    1
    11    24     1    1
    12     1     2   ar
    13     2     3   ar
    14     3    12    1
    15    12    13    2
    16    12    14   am
    17    16    14    1
    18    16    17    1
    19    17    18    1
    20    18    19    1
    21    19    20    1
    22    20    21    1
    23    21    22    1
    24     3     4   ar
    25     4     5    2
    26     4     6   ar
    27     6     7   ar
    28     7     8   ar
    29     8     9   ar
    30     9    10   ar
    31    10    11   ar
    32    28    29    1
    33    29    30    1
    34    34    35   ar
    35    35    36   ar
    36    36    31   ar
    37    30    25    1
    38    11     1   ar
    39    21    16    1
    40    11     6   ar
    41    14    15    1
    42    22    23    1
