@<TRIPOS>MOLECULE
*****
 31 35 0 0 0
SMALL
GASTEIGER

@<TRIPOS>ATOM
      1 N         143.6792  142.9424  160.5068 N.ar    1  UNL1       -0.1967
      2 N         142.5515  143.9294  160.5730 N.ar    1  UNL1       -0.1666
      3 C         142.3685  144.3285  162.0073 C.ar    1  UNL1        0.0849
      4 C         143.3830  143.5882  162.8275 C.ar    1  UNL1        0.0334
      5 C         143.6739  143.5835  164.2991 C.ar    1  UNL1        0.0027
      6 C         144.7748  142.7221  164.8432 C.ar    1  UNL1        0.0001
      7 C         145.5848  141.8655  163.9159 C.ar    1  UNL1        0.0015
      8 C         145.2940  141.8702  162.4444 C.ar    1  UNL1        0.0193
      9 C         144.1930  142.7316  161.9002 C.ar    1  UNL1        0.0870
     10 N         143.6083  138.9779  157.1484 N.pl3   1  UNL1       -0.3427
     11 C         144.1659  140.2999  157.5860 C.ar    1  UNL1        0.1276
     12 N         143.6438  140.9602  158.8276 N.ar    1  UNL1       -0.1957
     13 C         144.2013  142.2821  159.2652 C.ar    1  UNL1        0.2553
     14 N         145.2810  142.9439  158.4613 N.ar    1  UNL1       -0.1951
     15 C         145.8031  142.2837  157.2197 C.ar    1  UNL1        0.1364
     16 C         145.2456  140.9617  156.7821 C.ar    1  UNL1        0.0500
     17 C         145.9528  140.5540  155.5237 C.3     1  UNL1        0.1173
     18 C         146.9475  141.6241  155.1836 C.2     1  UNL1        0.2318
     19 O         147.8723  141.6250  154.0026 O.2     1  UNL1       -0.2744
     20 N         146.8550  142.6931  156.2318 N.am    1  UNL1       -0.2691
     21 H         142.8997  138.5436  157.6761 H       1  UNL1        0.1437
     22 H         143.9510  138.5446  156.3335 H       1  UNL1        0.1437
     23 H         147.3906  143.5185  156.2654 H       1  UNL1        0.1563
     24 C         141.3498  145.2978  162.5296 C.3     1  UNL1        0.0762
     25 C         140.0835  144.7911  163.1536 C.ar    1  UNL1        0.0113
     26 C         139.8536  144.9590  164.6264 C.ar    1  UNL1       -0.0017
     27 C         138.5872  144.4523  165.2505 C.ar    1  UNL1       -0.0002
     28 C         137.5505  143.7778  164.4018 C.ar    1  UNL1        0.0023
     29 C         137.7803  143.6098  162.9290 C.ar    1  UNL1        0.0293
     30 C         139.0467  144.1165  162.3049 C.ar    1  UNL1        0.1365
     31 F         139.2765  143.9486  160.8321 F       1  UNL1       -0.2045
@<TRIPOS>BOND
     1    10    11    1
     2    11    12   ar
     3    12    13   ar
     4    13     1    1
     5     1     2   ar
     6     2     3   ar
     7     3    24    1
     8    24    25    1
     9    25    26   ar
    10    26    27   ar
    11    27    28   ar
    12    28    29   ar
    13    29    30   ar
    14    30    31    1
    15     3     4   ar
    16     4     5   ar
    17     5     6   ar
    18     6     7   ar
    19     7     8   ar
    20     8     9   ar
    21    13    14   ar
    22    14    15   ar
    23    15    16   ar
    24    16    17    1
    25    17    18    1
    26    18    19    2
    27    18    20   am
    28    16    11   ar
    29     9     1   ar
    30    20    15    1
    31    30    25   ar
    32     9     4   ar
    33    10    21    1
    34    10    22    1
    35    20    23    1
@<TRIPOS>MOLECULE
*****
 31 35 0 0 0
SMALL
GASTEIGER

@<TRIPOS>ATOM
      1 N         142.7391  139.7493  165.4198 N.ar    1  UNL1       -0.1967
      2 N         142.2839  138.5927  164.5801 N.ar    1  UNL1       -0.1666
      3 C         142.9047  138.7334  163.2218 C.ar    1  UNL1        0.0849
      4 C         143.7436  139.9769  163.2221 C.ar    1  UNL1        0.0334
      5 C         144.5874  140.6187  162.1609 C.ar    1  UNL1        0.0027
      6 C         145.3289  141.8883  162.4582 C.ar    1  UNL1        0.0001
      7 C         145.2266  142.5161  163.8166 C.ar    1  UNL1        0.0015
      8 C         144.3827  141.8744  164.8778 C.ar    1  UNL1        0.0193
      9 C         143.6412  140.6047  164.5805 C.ar    1  UNL1        0.0870
     10 N         143.0053  138.4637  170.4474 N.pl3   1  UNL1       -0.3427
     11 C         142.4920  139.3627  169.3619 C.ar    1  UNL1        0.1276
     12 N         142.8722  139.1065  167.9336 N.ar    1  UNL1       -0.1957
     13 C         142.3589  140.0054  166.8481 C.ar    1  UNL1        0.2553
     14 N         141.4655  141.1606  167.1907 N.ar    1  UNL1       -0.1951
     15 C         141.0854  141.4168  168.6189 C.ar    1  UNL1        0.1364
     16 C         141.5986  140.5178  169.7045 C.ar    1  UNL1        0.0500
     17 C         141.0579  141.0150  171.0124 C.3     1  UNL1        0.1173
     18 C         140.2105  142.2212  170.7350 C.2     1  UNL1        0.2318
     19 O         139.4752  143.0361  171.7575 O.2     1  UNL1       -0.2744
     20 N         140.2274  142.4695  169.2558 N.am    1  UNL1       -0.2691
     21 H         143.5917  137.7055  170.2225 H       1  UNL1        0.1437
     22 H         142.7558  138.6318  171.3848 H       1  UNL1        0.1437
     23 H         139.7579  143.1959  168.7856 H       1  UNL1        0.1563
     24 C         142.7192  137.7953  162.0661 C.3     1  UNL1        0.0762
     25 C         141.7271  138.1195  160.9888 C.ar    1  UNL1        0.0113
     26 C         142.2051  138.5029  159.6197 C.ar    1  UNL1       -0.0017
     27 C         141.2130  138.8271  158.5424 C.ar    1  UNL1       -0.0002
     28 C         139.7429  138.7678  158.8341 C.ar    1  UNL1        0.0023
     29 C         139.2648  138.3844  160.2032 C.ar    1  UNL1        0.0293
     30 C         140.2569  138.0602  161.2806 C.ar    1  UNL1        0.1365
     31 F         139.7788  137.6767  162.6497 F       1  UNL1       -0.2045
@<TRIPOS>BOND
     1    10    11    1
     2    11    12   ar
     3    12    13   ar
     4    13     1    1
     5     1     2   ar
     6     2     3   ar
     7     3    24    1
     8    24    25    1
     9    25    26   ar
    10    26    27   ar
    11    27    28   ar
    12    28    29   ar
    13    29    30   ar
    14    30    31    1
    15     3     4   ar
    16     4     5   ar
    17     5     6   ar
    18     6     7   ar
    19     7     8   ar
    20     8     9   ar
    21    13    14   ar
    22    14    15   ar
    23    15    16   ar
    24    16    17    1
    25    17    18    1
    26    18    19    2
    27    18    20   am
    28    16    11   ar
    29     9     1   ar
    30    20    15    1
    31    30    25   ar
    32     9     4   ar
    33    10    21    1
    34    10    22    1
    35    20    23    1
@<TRIPOS>MOLECULE
*****
 31 35 0 0 0
SMALL
GASTEIGER

@<TRIPOS>ATOM
      1 N         141.7639  144.0039  161.8240 N.ar    1  UNL1       -0.1967
      2 N         142.9062  143.5767  162.6973 N.ar    1  UNL1       -0.1666
      3 C         142.3773  143.3746  164.0864 C.ar    1  UNL1        0.0849
      4 C         140.9082  143.6770  164.0716 C.ar    1  UNL1        0.0334
      5 C         139.8666  143.6484  165.1506 C.ar    1  UNL1        0.0027
      6 C         138.4459  144.0087  164.8315 C.ar    1  UNL1        0.0001
      7 C         138.0667  144.3976  163.4333 C.ar    1  UNL1        0.0015
      8 C         139.1083  144.4262  162.3542 C.ar    1  UNL1        0.0193
      9 C         140.5290  144.0659  162.6734 C.ar    1  UNL1        0.0870
     10 N         143.9906  143.2847  157.1845 N.pl3   1  UNL1       -0.3427
     11 C         142.9558  143.9550  158.0388 C.ar    1  UNL1        0.1276
     12 N         142.8772  143.6443  159.5043 N.ar    1  UNL1       -0.1957
     13 C         141.8425  144.3146  160.3586 C.ar    1  UNL1        0.2553
     14 N         140.8864  145.2957  159.7477 N.ar    1  UNL1       -0.1951
     15 C         140.9650  145.6065  158.2823 C.ar    1  UNL1        0.1364
     16 C         141.9997  144.9361  157.4279 C.ar    1  UNL1        0.0500
     17 C         141.8376  145.4383  156.0238 C.3     1  UNL1        0.1173
     18 C         140.7027  146.4190  156.0104 C.2     1  UNL1        0.2318
     19 O         140.1961  147.1649  154.8117 O.2     1  UNL1       -0.2744
     20 N         140.1634  146.5229  157.4062 N.am    1  UNL1       -0.2691
     21 H         144.6181  142.6407  157.5855 H       1  UNL1        0.1437
     22 H         144.0422  143.4886  156.2227 H       1  UNL1        0.1437
     23 H         139.4147  147.0927  157.6964 H       1  UNL1        0.1563
     24 C         143.1772  142.9456  165.2806 C.3     1  UNL1        0.0762
     25 C         143.2376  141.4960  165.6613 C.ar    1  UNL1        0.0113
     26 C         142.5703  141.0222  166.9184 C.ar    1  UNL1       -0.0017
     27 C         142.6307  139.5726  167.2991 C.ar    1  UNL1       -0.0002
     28 C         143.3583  138.5967  166.4228 C.ar    1  UNL1        0.0023
     29 C         144.0256  139.0704  165.1656 C.ar    1  UNL1        0.0293
     30 C         143.9653  140.5200  164.7849 C.ar    1  UNL1        0.1365
     31 F         144.6325  140.9937  163.5277 F       1  UNL1       -0.2045
@<TRIPOS>BOND
     1    10    11    1
     2    11    12   ar
     3    12    13   ar
     4    13     1    1
     5     1     2   ar
     6     2     3   ar
     7     3    24    1
     8    24    25    1
     9    25    26   ar
    10    26    27   ar
    11    27    28   ar
    12    28    29   ar
    13    29    30   ar
    14    30    31    1
    15     3     4   ar
    16     4     5   ar
    17     5     6   ar
    18     6     7   ar
    19     7     8   ar
    20     8     9   ar
    21    13    14   ar
    22    14    15   ar
    23    15    16   ar
    24    16    17    1
    25    17    18    1
    26    18    19    2
    27    18    20   am
    28    16    11   ar
    29     9     1   ar
    30    20    15    1
    31    30    25   ar
    32     9     4   ar
    33    10    21    1
    34    10    22    1
    35    20    23    1
@<TRIPOS>MOLECULE
*****
 31 35 0 0 0
SMALL
GASTEIGER

@<TRIPOS>ATOM
      1 N         140.7407  139.8416  163.8391 N.ar    1  UNL1       -0.1967
      2 N         141.0632  141.1944  164.4013 N.ar    1  UNL1       -0.1666
      3 C         140.2994  141.3583  165.6818 C.ar    1  UNL1        0.0849
      4 C         139.5048  140.1069  165.9111 C.ar    1  UNL1        0.0334
      5 C         138.5682  139.6998  167.0097 C.ar    1  UNL1        0.0027
      6 C         137.9042  138.3553  166.9695 C.ar    1  UNL1        0.0001
      7 C         138.1769  137.4179  165.8307 C.ar    1  UNL1        0.0015
      8 C         139.1136  137.8250  164.7320 C.ar    1  UNL1        0.0193
      9 C         139.7775  139.1695  164.7722 C.ar    1  UNL1        0.0870
     10 N         144.5198  137.3541  161.2835 N.pl3   1  UNL1       -0.3427
     11 C         143.1751  138.0188  161.2893 C.ar    1  UNL1        0.1276
     12 N         142.6301  138.5979  162.5613 N.ar    1  UNL1       -0.1957
     13 C         141.2856  139.2626  162.5672 C.ar    1  UNL1        0.2553
     14 N         140.4857  139.3483  161.3011 N.ar    1  UNL1       -0.1951
     15 C         141.0305  138.7692  160.0292 C.ar    1  UNL1        0.1364
     16 C         142.3752  138.1045  160.0233 C.ar    1  UNL1        0.0500
     17 C         142.6508  137.6282  158.6278 C.3     1  UNL1        0.1173
     18 C         141.4764  137.9985  157.7713 C.2     1  UNL1        0.2318
     19 O         141.3291  137.7137  156.3060 O.2     1  UNL1       -0.2744
     20 N         140.4750  138.7037  158.6374 N.am    1  UNL1       -0.2691
     21 H         145.0447  137.2979  162.1145 H       1  UNL1        0.1437
     22 H         144.8774  136.9741  160.4487 H       1  UNL1        0.1437
     23 H         139.6058  139.0609  158.3438 H       1  UNL1        0.1563
     24 C         140.3256  142.5623  166.5761 C.3     1  UNL1        0.0762
     25 C         141.0676  142.5130  167.8787 C.ar    1  UNL1        0.0113
     26 C         140.3243  142.6720  169.1718 C.ar    1  UNL1       -0.0017
     27 C         141.0663  142.6227  170.4745 C.ar    1  UNL1       -0.0002
     28 C         142.5517  142.4142  170.4841 C.ar    1  UNL1        0.0023
     29 C         143.2951  142.2552  169.1910 C.ar    1  UNL1        0.0293
     30 C         142.5531  142.3045  167.8883 C.ar    1  UNL1        0.1365
     31 F         143.2965  142.1454  166.5953 F       1  UNL1       -0.2045
@<TRIPOS>BOND
     1    10    11    1
     2    11    12   ar
     3    12    13   ar
     4    13     1    1
     5     1     2   ar
     6     2     3   ar
     7     3    24    1
     8    24    25    1
     9    25    26   ar
    10    26    27   ar
    11    27    28   ar
    12    28    29   ar
    13    29    30   ar
    14    30    31    1
    15     3     4   ar
    16     4     5   ar
    17     5     6   ar
    18     6     7   ar
    19     7     8   ar
    20     8     9   ar
    21    13    14   ar
    22    14    15   ar
    23    15    16   ar
    24    16    17    1
    25    17    18    1
    26    18    19    2
    27    18    20   am
    28    16    11   ar
    29     9     1   ar
    30    20    15    1
    31    30    25   ar
    32     9     4   ar
    33    10    21    1
    34    10    22    1
    35    20    23    1
@<TRIPOS>MOLECULE
*****
 31 35 0 0 0
SMALL
GASTEIGER

@<TRIPOS>ATOM
      1 N         141.9135  142.6724  163.6666 N.ar    1  UNL1       -0.1967
      2 N         142.2633  143.1934  165.0289 N.ar    1  UNL1       -0.1666
      3 C         142.4807  142.0167  165.9335 C.ar    1  UNL1        0.0849
      4 C         142.2652  140.7684  165.1301 C.ar    1  UNL1        0.0334
      5 C         142.3429  139.3151  165.4933 C.ar    1  UNL1        0.0027
      6 C         142.0700  138.2670  164.4554 C.ar    1  UNL1        0.0001
      7 C         141.7194  138.6722  163.0544 C.ar    1  UNL1        0.0015
      8 C         141.6417  140.1255  162.6912 C.ar    1  UNL1        0.0193
      9 C         141.9146  141.1736  163.7291 C.ar    1  UNL1        0.0870
     10 N         139.1581  146.4169  161.3455 N.pl3   1  UNL1       -0.3427
     11 C         140.2372  145.3762  161.2938 C.ar    1  UNL1        0.1276
     12 N         140.5359  144.5446  162.5060 N.ar    1  UNL1       -0.1957
     13 C         141.6149  143.5040  162.4544 C.ar    1  UNL1        0.2553
     14 N         142.3954  143.2949  161.1906 N.ar    1  UNL1       -0.1951
     15 C         142.0968  144.1265  159.9785 C.ar    1  UNL1        0.1364
     16 C         141.0178  145.1671  160.0301 C.ar    1  UNL1        0.0500
     17 C         140.9489  145.8305  158.6865 C.3     1  UNL1        0.1173
     18 C         141.9854  145.1999  157.8046 C.2     1  UNL1        0.2318
     19 O         142.2637  145.5592  156.3751 O.2     1  UNL1       -0.2744
     20 N         142.6949  144.1467  158.6030 N.am    1  UNL1       -0.2691
     21 H         138.6459  146.5541  162.1749 H       1  UNL1        0.1437
     22 H         138.9622  146.9627  160.5499 H       1  UNL1        0.1437
     23 H         143.4249  143.5700  158.2809 H       1  UNL1        0.1563
     24 C         142.8490  142.0776  167.3863 C.3     1  UNL1        0.0762
     25 C         141.9568  141.4456  168.4132 C.ar    1  UNL1        0.0113
     26 C         142.3601  140.1567  169.0659 C.ar    1  UNL1       -0.0017
     27 C         141.4679  139.5247  170.0929 C.ar    1  UNL1       -0.0002
     28 C         140.1724  140.1816  170.4671 C.ar    1  UNL1        0.0023
     29 C         139.7691  141.4706  169.8145 C.ar    1  UNL1        0.0293
     30 C         140.6612  142.1026  168.7875 C.ar    1  UNL1        0.1365
     31 F         140.2579  143.3915  168.1349 F       1  UNL1       -0.2045
@<TRIPOS>BOND
     1    10    11    1
     2    11    12   ar
     3    12    13   ar
     4    13     1    1
     5     1     2   ar
     6     2     3   ar
     7     3    24    1
     8    24    25    1
     9    25    26   ar
    10    26    27   ar
    11    27    28   ar
    12    28    29   ar
    13    29    30   ar
    14    30    31    1
    15     3     4   ar
    16     4     5   ar
    17     5     6   ar
    18     6     7   ar
    19     7     8   ar
    20     8     9   ar
    21    13    14   ar
    22    14    15   ar
    23    15    16   ar
    24    16    17    1
    25    17    18    1
    26    18    19    2
    27    18    20   am
    28    16    11   ar
    29     9     1   ar
    30    20    15    1
    31    30    25   ar
    32     9     4   ar
    33    10    21    1
    34    10    22    1
    35    20    23    1
@<TRIPOS>MOLECULE
*****
 31 35 0 0 0
SMALL
GASTEIGER

@<TRIPOS>ATOM
      1 N         140.1999  141.5363  164.2088 N.ar    1  UNL1       -0.1967
      2 N         140.2938  141.8298  165.6768 N.ar    1  UNL1       -0.1666
      3 C         139.8499  140.6068  166.4233 C.ar    1  UNL1        0.0849
      4 C         139.4815  139.5575  165.4167 C.ar    1  UNL1        0.0334
      5 C         138.9771  138.1532  165.5696 C.ar    1  UNL1        0.0027
      6 C         138.6889  137.3232  164.3537 C.ar    1  UNL1        0.0001
      7 C         138.9052  137.8976  162.9850 C.ar    1  UNL1        0.0015
      8 C         139.4097  139.3020  162.8322 C.ar    1  UNL1        0.0193
      9 C         139.6978  140.1319  164.0481 C.ar    1  UNL1        0.0870
     10 N         143.3085  145.1916  162.2150 N.pl3   1  UNL1       -0.3427
     11 C         142.1013  144.3089  162.0997 C.ar    1  UNL1        0.1276
     12 N         141.7541  143.3639  163.2118 N.ar    1  UNL1       -0.1957
     13 C         140.5470  142.4812  163.0967 C.ar    1  UNL1        0.2553
     14 N         139.6868  142.5433  161.8694 N.ar    1  UNL1       -0.1951
     15 C         140.0338  143.4881  160.7573 C.ar    1  UNL1        0.1364
     16 C         141.2411  144.3709  160.8724 C.ar    1  UNL1        0.0500
     17 C         141.3324  145.1966  159.6235 C.3     1  UNL1        0.1173
     18 C         140.1816  144.8241  158.7365 C.2     1  UNL1        0.2318
     19 O         139.8853  145.4055  157.3858 O.2     1  UNL1       -0.2744
     20 N         139.3790  143.7682  159.4371 N.am    1  UNL1       -0.2691
     21 H         143.8731  145.1509  163.0205 H       1  UNL1        0.1437
     22 H         143.5364  145.8118  161.4851 H       1  UNL1        0.1437
     23 H         138.5654  143.3351  159.0913 H       1  UNL1        0.1563
     24 C         139.7855  140.4591  167.9147 C.3     1  UNL1        0.0762
     25 C         140.7457  141.2142  168.7851 C.ar    1  UNL1        0.0113
     26 C         140.4283  142.6170  169.2109 C.ar    1  UNL1       -0.0017
     27 C         141.3885  143.3722  170.0814 C.ar    1  UNL1       -0.0002
     28 C         142.6662  142.7245  170.5262 C.ar    1  UNL1        0.0023
     29 C         142.9838  141.3216  170.1004 C.ar    1  UNL1        0.0293
     30 C         142.0236  140.5665  169.2299 C.ar    1  UNL1        0.1365
     31 F         142.3411  139.1636  168.8042 F       1  UNL1       -0.2045
@<TRIPOS>BOND
     1    10    11    1
     2    11    12   ar
     3    12    13   ar
     4    13     1    1
     5     1     2   ar
     6     2     3   ar
     7     3    24    1
     8    24    25    1
     9    25    26   ar
    10    26    27   ar
    11    27    28   ar
    12    28    29   ar
    13    29    30   ar
    14    30    31    1
    15     3     4   ar
    16     4     5   ar
    17     5     6   ar
    18     6     7   ar
    19     7     8   ar
    20     8     9   ar
    21    13    14   ar
    22    14    15   ar
    23    15    16   ar
    24    16    17    1
    25    17    18    1
    26    18    19    2
    27    18    20   am
    28    16    11   ar
    29     9     1   ar
    30    20    15    1
    31    30    25   ar
    32     9     4   ar
    33    10    21    1
    34    10    22    1
    35    20    23    1
@<TRIPOS>MOLECULE
*****
 31 35 0 0 0
SMALL
GASTEIGER

@<TRIPOS>ATOM
      1 N         139.8806  142.5078  163.9530 N.ar    1  UNL1       -0.1967
      2 N         140.2057  143.3650  165.1402 N.ar    1  UNL1       -0.1666
      3 C         139.9891  142.5448  166.3774 C.ar    1  UNL1        0.0849
      4 C         139.5301  141.1808  165.9547 C.ar    1  UNL1        0.0334
      5 C         139.1645  139.9566  166.7406 C.ar    1  UNL1        0.0027
      6 C         138.7318  138.7094  166.0281 C.ar    1  UNL1        0.0001
      7 C         138.6648  138.6865  164.5298 C.ar    1  UNL1        0.0015
      8 C         139.0304  139.9107  163.7439 C.ar    1  UNL1        0.0193
      9 C         139.4630  141.1579  164.4564 C.ar    1  UNL1        0.0870
     10 N         138.2200  142.0909  159.0470 N.pl3   1  UNL1       -0.3427
     11 C         139.1290  142.7185  160.0618 C.ar    1  UNL1        0.1276
     12 N         139.0504  142.2994  161.5000 N.ar    1  UNL1       -0.1957
     13 C         139.9593  142.9269  162.5148 C.ar    1  UNL1        0.2553
     14 N         140.9469  143.9736  162.0917 N.ar    1  UNL1       -0.1951
     15 C         141.0256  144.3927  160.6536 C.ar    1  UNL1        0.1364
     16 C         140.1166  143.7652  159.6387 C.ar    1  UNL1        0.0500
     17 C         140.4212  144.3761  158.3030 C.3     1  UNL1        0.1173
     18 C         141.5184  145.3812  158.4924 C.2     1  UNL1        0.2318
     19 O         142.1341  146.2275  157.4178 O.2     1  UNL1       -0.2744
     20 N         141.8919  145.3915  159.9452 N.am    1  UNL1       -0.2691
     21 H         137.5718  141.4040  159.3248 H       1  UNL1        0.1437
     22 H         138.2716  142.3660  158.1031 H       1  UNL1        0.1437
     23 H         142.5842  145.9548  160.3607 H       1  UNL1        0.1563
     24 C         140.1953  143.0075  167.7893 C.3     1  UNL1        0.0762
     25 C         141.0394  142.1977  168.7281 C.ar    1  UNL1        0.0113
     26 C         142.5351  142.2530  168.6293 C.ar    1  UNL1       -0.0017
     27 C         143.3793  141.4431  169.5681 C.ar    1  UNL1       -0.0002
     28 C         142.7278  140.5780  170.6059 C.ar    1  UNL1        0.0023
     29 C         141.2321  140.5226  170.7048 C.ar    1  UNL1        0.0293
     30 C         140.3879  141.3325  169.7660 C.ar    1  UNL1        0.1365
     31 F         138.8921  141.2771  169.8649 F       1  UNL1       -0.2045
@<TRIPOS>BOND
     1    10    11    1
     2    11    12   ar
     3    12    13   ar
     4    13     1    1
     5     1     2   ar
     6     2     3   ar
     7     3    24    1
     8    24    25    1
     9    25    26   ar
    10    26    27   ar
    11    27    28   ar
    12    28    29   ar
    13    29    30   ar
    14    30    31    1
    15     3     4   ar
    16     4     5   ar
    17     5     6   ar
    18     6     7   ar
    19     7     8   ar
    20     8     9   ar
    21    13    14   ar
    22    14    15   ar
    23    15    16   ar
    24    16    17    1
    25    17    18    1
    26    18    19    2
    27    18    20   am
    28    16    11   ar
    29     9     1   ar
    30    20    15    1
    31    30    25   ar
    32     9     4   ar
    33    10    21    1
    34    10    22    1
    35    20    23    1
@<TRIPOS>MOLECULE
*****
 31 35 0 0 0
SMALL
GASTEIGER

@<TRIPOS>ATOM
      1 N         141.0012  141.3301  163.1021 N.ar    1  UNL1       -0.1967
      2 N         141.8366  141.1191  164.3300 N.ar    1  UNL1       -0.1666
      3 C         141.3435  142.0561  165.3926 C.ar    1  UNL1        0.0849
      4 C         140.2034  142.8460  164.8215 C.ar    1  UNL1        0.0334
      5 C         139.3306  143.9159  165.4076 C.ar    1  UNL1        0.0027
      6 C         138.2461  144.5371  164.5781 C.ar    1  UNL1        0.0001
      7 C         138.0345  144.0885  163.1625 C.ar    1  UNL1        0.0015
      8 C         138.9073  143.0186  162.5764 C.ar    1  UNL1        0.0193
      9 C         139.9918  142.3973  163.4059 C.ar    1  UNL1        0.0870
     10 N         144.0231  139.4382  159.3220 N.pl3   1  UNL1       -0.3427
     11 C         142.6600  139.6557  159.9091 C.ar    1  UNL1        0.1276
     12 N         142.5121  140.3841  161.2121 N.ar    1  UNL1       -0.1957
     13 C         141.1491  140.6017  161.7992 C.ar    1  UNL1        0.2553
     14 N         139.9339  140.0909  161.0834 N.ar    1  UNL1       -0.1951
     15 C         140.0817  139.3625  159.7805 C.ar    1  UNL1        0.1364
     16 C         141.4447  139.1449  159.1934 C.ar    1  UNL1        0.0500
     17 C         141.2799  138.3972  157.9035 C.3     1  UNL1        0.1173
     18 C         139.8150  138.1527  157.6935 C.2     1  UNL1        0.2318
     19 O         139.1987  137.4373  156.5280 O.2     1  UNL1       -0.2744
     20 N         139.0744  138.7493  158.8535 N.am    1  UNL1       -0.2691
     21 H         144.8206  139.7734  159.7918 H       1  UNL1        0.1437
     22 H         144.1202  138.9601  158.4668 H       1  UNL1        0.1437
     23 H         138.0986  138.7400  158.9836 H       1  UNL1        0.1563
     24 C         141.8940  142.1810  166.7824 C.3     1  UNL1        0.0762
     25 C         141.0084  141.9249  167.9656 C.ar    1  UNL1        0.0113
     26 C         140.8221  142.9881  169.0072 C.ar    1  UNL1       -0.0017
     27 C         139.9366  142.7319  170.1905 C.ar    1  UNL1       -0.0002
     28 C         139.2372  141.4125  170.3322 C.ar    1  UNL1        0.0023
     29 C         139.4235  140.3493  169.2906 C.ar    1  UNL1        0.0293
     30 C         140.3090  140.6054  168.1073 C.ar    1  UNL1        0.1365
     31 F         140.4953  139.5421  167.0658 F       1  UNL1       -0.2045
@<TRIPOS>BOND
     1    10    11    1
     2    11    12   ar
     3    12    13   ar
     4    13     1    1
     5     1     2   ar
     6     2     3   ar
     7     3    24    1
     8    24    25    1
     9    25    26   ar
    10    26    27   ar
    11    27    28   ar
    12    28    29   ar
    13    29    30   ar
    14    30    31    1
    15     3     4   ar
    16     4     5   ar
    17     5     6   ar
    18     6     7   ar
    19     7     8   ar
    20     8     9   ar
    21    13    14   ar
    22    14    15   ar
    23    15    16   ar
    24    16    17    1
    25    17    18    1
    26    18    19    2
    27    18    20   am
    28    16    11   ar
    29     9     1   ar
    30    20    15    1
    31    30    25   ar
    32     9     4   ar
    33    10    21    1
    34    10    22    1
    35    20    23    1
@<TRIPOS>MOLECULE
*****
 31 35 0 0 0
SMALL
GASTEIGER

@<TRIPOS>ATOM
      1 N         141.7232  141.8024  162.1410 N.ar    1  UNL1       -0.1967
      2 N         140.8152  140.7400  162.6857 N.ar    1  UNL1       -0.1666
      3 C         141.6252  139.8549  163.5862 C.ar    1  UNL1        0.0849
      4 C         143.0338  140.3704  163.5979 C.ar    1  UNL1        0.0334
      5 C         144.2691  139.8993  164.3066 C.ar    1  UNL1        0.0027
      6 C         145.5650  140.6319  164.1220 C.ar    1  UNL1        0.0001
      7 C         145.6257  141.8355  163.2289 C.ar    1  UNL1        0.0015
      8 C         144.3903  142.3066  162.5202 C.ar    1  UNL1        0.0193
      9 C         143.0944  141.5740  162.7048 C.ar    1  UNL1        0.0870
     10 N         139.3544  146.3423  161.2586 N.pl3   1  UNL1       -0.3427
     11 C         140.1449  145.1704  160.7568 C.ar    1  UNL1        0.1276
     12 N         140.5388  144.0723  161.6998 N.ar    1  UNL1       -0.1957
     13 C         141.3293  142.9005  161.1980 C.ar    1  UNL1        0.2553
     14 N         141.7260  142.8266  159.7533 N.ar    1  UNL1       -0.1951
     15 C         141.3321  143.9246  158.8104 C.ar    1  UNL1        0.1364
     16 C         140.5416  145.0965  159.3121 C.ar    1  UNL1        0.0500
     17 C         140.2988  146.0210  158.1561 C.3     1  UNL1        0.1173
     18 C         140.9393  145.4205  156.9399 C.2     1  UNL1        0.2318
     19 O         140.9409  146.0117  155.5614 O.2     1  UNL1       -0.2744
     20 N         141.5779  144.1248  157.3442 N.am    1  UNL1       -0.2691
     21 H         139.0941  146.3907  162.2068 H       1  UNL1        0.1437
     22 H         139.0959  147.0630  160.6397 H       1  UNL1        0.1437
     23 H         142.0717  143.5132  156.7514 H       1  UNL1        0.1563
     24 C         141.1160  138.6636  164.3421 C.3     1  UNL1        0.0762
     25 C         140.1499  138.8507  165.4742 C.ar    1  UNL1        0.0113
     26 C         138.8163  138.1646  165.4433 C.ar    1  UNL1       -0.0017
     27 C         137.8502  138.3516  166.5754 C.ar    1  UNL1       -0.0002
     28 C         138.2177  139.2247  167.7384 C.ar    1  UNL1        0.0023
     29 C         139.5512  139.9108  167.7694 C.ar    1  UNL1        0.0293
     30 C         140.5174  139.7238  166.6373 C.ar    1  UNL1        0.1365
     31 F         141.8509  140.4099  166.6682 F       1  UNL1       -0.2045
@<TRIPOS>BOND
     1    10    11    1
     2    11    12   ar
     3    12    13   ar
     4    13     1    1
     5     1     2   ar
     6     2     3   ar
     7     3    24    1
     8    24    25    1
     9    25    26   ar
    10    26    27   ar
    11    27    28   ar
    12    28    29   ar
    13    29    30   ar
    14    30    31    1
    15     3     4   ar
    16     4     5   ar
    17     5     6   ar
    18     6     7   ar
    19     7     8   ar
    20     8     9   ar
    21    13    14   ar
    22    14    15   ar
    23    15    16   ar
    24    16    17    1
    25    17    18    1
    26    18    19    2
    27    18    20   am
    28    16    11   ar
    29     9     1   ar
    30    20    15    1
    31    30    25   ar
    32     9     4   ar
    33    10    21    1
    34    10    22    1
    35    20    23    1
