@<TRIPOS>MOLECULE
*****
 38 42 0 0 0
SMALL
GASTEIGER

@<TRIPOS>ATOM
      1 C         139.6030  138.4395  161.0327 C.3     1  UNL1        0.0118
      2 C         139.0627  138.7353  159.6650 C.3     1  UNL1        0.0179
      3 C         139.9889  138.7782  158.4860 C.3     1  UNL1        0.0724
      4 N         141.4554  138.5254  158.6746 N.3     1  UNL1       -0.2689
      5 C         141.9956  138.2297  160.0423 C.3     1  UNL1        0.0724
      6 C         141.0694  138.1868  161.2214 C.3     1  UNL1        0.0179
      7 C         138.6767  138.3966  162.2119 C.3     1  UNL1        0.0854
      8 O         137.5514  140.6546  162.8323 O.2     1  UNL1       -0.2749
      9 C         138.5630  139.5851  163.1199 C.2     1  UNL1        0.2257
     10 N         139.4609  139.7040  164.3157 N.am    1  UNL1       -0.2760
     11 C         139.3472  140.8924  165.2237 C.3     1  UNL1        0.1150
     12 C         140.2450  141.0113  166.4194 C.3     1  UNL1        0.1165
     13 N         141.2566  139.9417  166.7070 N.am    1  UNL1       -0.2605
     14 C         142.1544  140.0607  167.9028 C.2     1  UNL1        0.3073
     15 O         143.1660  138.9911  168.1904 O.2     1  UNL1       -0.2523
     16 N         142.0407  141.2491  168.8108 N.am    1  UNL1       -0.2640
     17 C         142.8657  141.5036  170.0374 C.3     1  UNL1        0.0950
     18 C         142.4169  142.8035  170.6364 C.3     1  UNL1        0.0233
     19 C         141.3145  143.3525  169.7800 C.3     1  UNL1        0.0233
     20 C         141.0820  142.3918  168.6517 C.3     1  UNL1        0.0950
     21 C         141.3703  138.7533  165.7990 C.3     1  UNL1        0.1165
     22 C         140.4724  138.6344  164.6033 C.3     1  UNL1        0.1150
     23 C         142.3816  138.5683  157.4955 C.3     1  UNL1        0.1007
     24 C         142.9384  137.2944  156.9323 C.ar    1  UNL1        0.0129
     25 C         143.6730  137.1521  155.6323 C.ar    1  UNL1        0.0176
     26 C         144.0469  135.7089  155.4668 C.ar    1  UNL1        0.0799
     27 N         143.5433  134.9592  156.6645 N.ar    1  UNL1       -0.3038
     28 C         142.8582  135.9392  157.5702 C.ar    1  UNL1        0.0772
     29 C         143.6977  133.4880  156.9128 C.ar    1  UNL1        0.0640
     30 C         142.7175  132.5203  156.3190 C.ar    1  UNL1        0.0175
     31 C         142.8719  131.0491  156.5674 C.ar    1  UNL1        0.0053
     32 C         144.0065  130.5456  157.4095 C.ar    1  UNL1        0.0715
     33 C         144.9867  131.5134  158.0033 C.ar    1  UNL1        0.0053
     34 C         144.8323  132.9846  157.7550 C.ar    1  UNL1        0.0175
     35 C         144.1608  129.0744  157.6578 C.3     1  UNL1        0.4186
     36 F         144.3152  127.6032  157.9063 F       1  UNL1       -0.1659
     37 F         144.7439  128.9041  156.2863 F       1  UNL1       -0.1659
     38 F         143.5778  129.2447  159.0294 F       1  UNL1       -0.1659
@<TRIPOS>BOND
     1     8     9    2
     2     9     7    1
     3     7     1    1
     4     1     2    1
     5     2     3    1
     6     3     4    1
     7     4    23    1
     8    23    24    1
     9    24    25   ar
    10    25    26   ar
    11    26    27   ar
    12    27    29    1
    13    29    30   ar
    14    30    31   ar
    15    31    32   ar
    16    32    35    1
    17    35    36    1
    18    35    37    1
    19    35    38    1
    20    32    33   ar
    21    33    34   ar
    22    27    28   ar
    23     4     5    1
    24     5     6    1
    25     9    10   am
    26    10    11    1
    27    11    12    1
    28    12    13    1
    29    13    14   am
    30    14    15    2
    31    14    16   am
    32    16    17    1
    33    17    18    1
    34    18    19    1
    35    19    20    1
    36    13    21    1
    37    21    22    1
    38     6     1    1
    39    22    10    1
    40    28    24   ar
    41    20    16    1
    42    34    29   ar
@<TRIPOS>MOLECULE
*****
 38 42 0 0 0
SMALL
GASTEIGER

@<TRIPOS>ATOM
      1 C         139.8832  140.6423  158.9124 C.3     1  UNL1        0.0118
      2 C         140.0511  142.1205  159.1036 C.3     1  UNL1        0.0179
      3 C         139.3192  142.8216  160.2094 C.3     1  UNL1        0.0724
      4 N         138.4193  142.0444  161.1238 N.3     1  UNL1       -0.2689
      5 C         138.2513  140.5662  160.9325 C.3     1  UNL1        0.0724
      6 C         138.9832  139.8652  159.8268 C.3     1  UNL1        0.0179
      7 C         140.6152  139.9411  157.8066 C.3     1  UNL1        0.0854
      8 O         142.6614  139.2228  159.2373 O.2     1  UNL1       -0.2749
      9 C         141.6872  138.9436  158.1314 C.2     1  UNL1        0.2257
     10 N         141.7852  137.6667  157.3502 N.am    1  UNL1       -0.2760
     11 C         142.8573  136.6692  157.6750 C.3     1  UNL1        0.1150
     12 C         142.9552  135.3925  156.8938 C.3     1  UNL1        0.1165
     13 N         141.9811  135.1132  155.7879 N.am    1  UNL1       -0.2605
     14 C         142.0791  133.8364  155.0068 C.2     1  UNL1        0.3073
     15 O         141.1049  133.5571  153.9008 O.2     1  UNL1       -0.2523
     16 N         143.1512  132.8388  155.3315 N.am    1  UNL1       -0.2640
     17 C         143.3721  131.5257  154.6410 C.3     1  UNL1        0.0950
     18 C         144.5480  130.8546  155.2866 C.3     1  UNL1        0.0233
     19 C         145.0539  131.7530  156.3761 C.3     1  UNL1        0.0233
     20 C         144.1906  132.9793  156.4039 C.3     1  UNL1        0.0950
     21 C         140.9090  136.1107  155.4631 C.3     1  UNL1        0.1165
     22 C         140.8111  137.3875  156.2443 C.3     1  UNL1        0.1150
     23 C         137.6873  142.7456  162.2296 C.3     1  UNL1        0.1007
     24 C         138.3736  143.0025  163.5384 C.ar    1  UNL1        0.0129
     25 C         138.4698  144.3255  164.2386 C.ar    1  UNL1        0.0176
     26 C         139.2398  144.1222  165.5097 C.ar    1  UNL1        0.0799
     27 N         139.6195  142.6736  165.5951 N.ar    1  UNL1       -0.3038
     28 C         139.0841  141.9816  164.3767 C.ar    1  UNL1        0.0772
     29 C         140.3979  142.0299  166.7041 C.ar    1  UNL1        0.0640
     30 C         140.8716  140.6137  166.5641 C.ar    1  UNL1        0.0175
     31 C         141.6500  139.9701  167.6731 C.ar    1  UNL1        0.0053
     32 C         141.9546  140.7427  168.9221 C.ar    1  UNL1        0.0715
     33 C         141.4808  142.1590  169.0622 C.ar    1  UNL1        0.0053
     34 C         140.7025  142.8026  167.9532 C.ar    1  UNL1        0.0175
     35 C         142.7330  140.0991  170.0310 C.3     1  UNL1        0.4186
     36 F         143.5113  139.4554  171.1401 F       1  UNL1       -0.1659
     37 F         143.7146  141.2329  170.0001 F       1  UNL1       -0.1659
     38 F         141.7514  138.9653  170.0620 F       1  UNL1       -0.1659
@<TRIPOS>BOND
     1     8     9    2
     2     9     7    1
     3     7     1    1
     4     1     2    1
     5     2     3    1
     6     3     4    1
     7     4    23    1
     8    23    24    1
     9    24    25   ar
    10    25    26   ar
    11    26    27   ar
    12    27    29    1
    13    29    30   ar
    14    30    31   ar
    15    31    32   ar
    16    32    35    1
    17    35    36    1
    18    35    37    1
    19    35    38    1
    20    32    33   ar
    21    33    34   ar
    22    27    28   ar
    23     4     5    1
    24     5     6    1
    25     9    10   am
    26    10    11    1
    27    11    12    1
    28    12    13    1
    29    13    14   am
    30    14    15    2
    31    14    16   am
    32    16    17    1
    33    17    18    1
    34    18    19    1
    35    19    20    1
    36    13    21    1
    37    21    22    1
    38     6     1    1
    39    22    10    1
    40    28    24   ar
    41    20    16    1
    42    34    29   ar
@<TRIPOS>MOLECULE
*****
 38 42 0 0 0
SMALL
GASTEIGER

@<TRIPOS>ATOM
      1 C         141.7073  137.7903  157.4799 C.3     1  UNL1        0.0118
      2 C         142.4997  138.0863  158.7186 C.3     1  UNL1        0.0179
      3 C         141.8359  138.7364  159.8961 C.3     1  UNL1        0.0724
      4 N         140.3795  139.0905  159.8349 N.3     1  UNL1       -0.2689
      5 C         139.5871  138.7945  158.5962 C.3     1  UNL1        0.0724
      6 C         140.2510  138.1444  157.4187 C.3     1  UNL1        0.0179
      7 C         142.3712  137.1401  156.3023 C.3     1  UNL1        0.0854
      8 O         140.6859  136.0284  154.6671 O.2     1  UNL1       -0.2749
      9 C         141.7748  135.9067  155.6916 C.2     1  UNL1        0.2257
     10 N         142.2672  134.5516  156.1055 N.am    1  UNL1       -0.2760
     11 C         141.6708  133.3182  155.4948 C.3     1  UNL1        0.1150
     12 C         142.1632  131.9631  155.9086 C.3     1  UNL1        0.1165
     13 N         143.2520  131.8415  156.9331 N.am    1  UNL1       -0.2605
     14 C         143.7444  130.4863  157.3470 C.2     1  UNL1        0.3073
     15 O         144.8333  130.3647  158.3715 O.2     1  UNL1       -0.2523
     16 N         143.1480  129.2529  156.7363 N.am    1  UNL1       -0.2640
     17 C         143.5360  127.8382  157.0492 C.3     1  UNL1        0.0950
     18 C         142.6867  126.9286  156.2118 C.3     1  UNL1        0.0233
     19 C         141.7737  127.7812  155.3813 C.3     1  UNL1        0.0233
     20 C         142.0588  129.2177  155.7055 C.3     1  UNL1        0.0950
     21 C         143.8484  133.0749  157.5438 C.3     1  UNL1        0.1165
     22 C         143.3560  134.4299  157.1300 C.3     1  UNL1        0.1150
     23 C         139.7156  139.7406  161.0125 C.3     1  UNL1        0.1007
     24 C         139.9196  139.1837  162.3903 C.ar    1  UNL1        0.0129
     25 C         139.7607  137.7476  162.7932 C.ar    1  UNL1        0.0176
     26 C         140.0611  137.6415  164.2590 C.ar    1  UNL1        0.0799
     27 N         140.4056  139.0121  164.7620 N.ar    1  UNL1       -0.3038
     28 C         140.3181  139.9652  163.6070 C.ar    1  UNL1        0.0772
     29 C         140.7731  139.3671  166.1722 C.ar    1  UNL1        0.0640
     30 C         139.7089  139.7910  167.1406 C.ar    1  UNL1        0.0175
     31 C         140.0764  140.1460  168.5508 C.ar    1  UNL1        0.0053
     32 C         141.5080  140.0772  168.9928 C.ar    1  UNL1        0.0715
     33 C         142.5723  139.6533  168.0245 C.ar    1  UNL1        0.0053
     34 C         142.2049  139.2983  166.6142 C.ar    1  UNL1        0.0175
     35 C         141.8755  140.4322  170.4031 C.3     1  UNL1        0.4186
     36 F         142.2431  140.7873  171.8133 F       1  UNL1       -0.1659
     37 F         140.4593  140.1889  170.8333 F       1  UNL1       -0.1659
     38 F         143.2918  140.6755  169.9728 F       1  UNL1       -0.1659
@<TRIPOS>BOND
     1     8     9    2
     2     9     7    1
     3     7     1    1
     4     1     2    1
     5     2     3    1
     6     3     4    1
     7     4    23    1
     8    23    24    1
     9    24    25   ar
    10    25    26   ar
    11    26    27   ar
    12    27    29    1
    13    29    30   ar
    14    30    31   ar
    15    31    32   ar
    16    32    35    1
    17    35    36    1
    18    35    37    1
    19    35    38    1
    20    32    33   ar
    21    33    34   ar
    22    27    28   ar
    23     4     5    1
    24     5     6    1
    25     9    10   am
    26    10    11    1
    27    11    12    1
    28    12    13    1
    29    13    14   am
    30    14    15    2
    31    14    16   am
    32    16    17    1
    33    17    18    1
    34    18    19    1
    35    19    20    1
    36    13    21    1
    37    21    22    1
    38     6     1    1
    39    22    10    1
    40    28    24   ar
    41    20    16    1
    42    34    29   ar
@<TRIPOS>MOLECULE
*****
 38 42 0 0 0
SMALL
GASTEIGER

@<TRIPOS>ATOM
      1 C         140.2929  139.2634  158.1600 C.3     1  UNL1        0.0118
      2 C         139.0326  140.0738  158.2297 C.3     1  UNL1        0.0179
      3 C         138.1731  140.0196  159.4578 C.3     1  UNL1        0.0724
      4 N         138.5739  139.1550  160.6162 N.3     1  UNL1       -0.2689
      5 C         139.8342  138.3447  160.5465 C.3     1  UNL1        0.0724
      6 C         140.6937  138.3989  159.3184 C.3     1  UNL1        0.0179
      7 C         141.1525  139.3176  156.9318 C.3     1  UNL1        0.0854
      8 O         140.1232  138.5057  154.6888 O.2     1  UNL1       -0.2749
      9 C         141.0133  138.2654  155.8720 C.2     1  UNL1        0.2257
     10 N         141.7643  136.9727  155.9953 N.am    1  UNL1       -0.2760
     11 C         141.6251  135.9204  154.9354 C.3     1  UNL1        0.1150
     12 C         142.3761  134.6278  155.0588 C.3     1  UNL1        0.1165
     13 N         143.2662  134.3875  156.2420 N.am    1  UNL1       -0.2605
     14 C         144.0171  133.0948  156.3653 C.2     1  UNL1        0.3073
     15 O         144.9072  132.8545  157.5485 O.2     1  UNL1       -0.2523
     16 N         143.8780  132.0426  155.3055 N.am    1  UNL1       -0.2640
     17 C         144.5627  130.7081  155.2928 C.3     1  UNL1        0.0950
     18 C         144.1376  129.9807  154.0517 C.3     1  UNL1        0.0233
     19 C         143.1901  130.8658  153.2973 C.3     1  UNL1        0.0233
     20 C         143.0297  132.1401  154.0722 C.3     1  UNL1        0.0950
     21 C         143.4053  135.4398  157.3019 C.3     1  UNL1        0.1165
     22 C         142.6544  136.7324  157.1785 C.3     1  UNL1        0.1150
     23 C         137.7143  139.1009  161.8443 C.3     1  UNL1        0.1007
     24 C         138.1676  139.7715  163.1072 C.ar    1  UNL1        0.0129
     25 C         137.7551  141.1344  163.5786 C.ar    1  UNL1        0.0176
     26 C         138.4454  141.4022  164.8831 C.ar    1  UNL1        0.0799
     27 N         139.2846  140.2048  165.2179 N.ar    1  UNL1       -0.3038
     28 C         139.1129  139.1970  164.1203 C.ar    1  UNL1        0.0772
     29 C         140.1445  140.0436  166.4363 C.ar    1  UNL1        0.0640
     30 C         139.5635  140.2726  167.8000 C.ar    1  UNL1        0.0175
     31 C         140.4234  140.1113  169.0184 C.ar    1  UNL1        0.0053
     32 C         141.8643  139.7211  168.8731 C.ar    1  UNL1        0.0715
     33 C         142.4455  139.4921  167.5094 C.ar    1  UNL1        0.0053
     34 C         141.5856  139.6533  166.2910 C.ar    1  UNL1        0.0175
     35 C         142.7242  139.5598  170.0915 C.3     1  UNL1        0.4186
     36 F         143.5841  139.3985  171.3099 F       1  UNL1       -0.1659
     37 F         142.5557  141.0173  170.4033 F       1  UNL1       -0.1659
     38 F         142.8927  138.1022  169.7797 F       1  UNL1       -0.1659
@<TRIPOS>BOND
     1     8     9    2
     2     9     7    1
     3     7     1    1
     4     1     2    1
     5     2     3    1
     6     3     4    1
     7     4    23    1
     8    23    24    1
     9    24    25   ar
    10    25    26   ar
    11    26    27   ar
    12    27    29    1
    13    29    30   ar
    14    30    31   ar
    15    31    32   ar
    16    32    35    1
    17    35    36    1
    18    35    37    1
    19    35    38    1
    20    32    33   ar
    21    33    34   ar
    22    27    28   ar
    23     4     5    1
    24     5     6    1
    25     9    10   am
    26    10    11    1
    27    11    12    1
    28    12    13    1
    29    13    14   am
    30    14    15    2
    31    14    16   am
    32    16    17    1
    33    17    18    1
    34    18    19    1
    35    19    20    1
    36    13    21    1
    37    21    22    1
    38     6     1    1
    39    22    10    1
    40    28    24   ar
    41    20    16    1
    42    34    29   ar
@<TRIPOS>MOLECULE
*****
 38 42 0 0 0
SMALL
GASTEIGER

@<TRIPOS>ATOM
      1 C         142.0838  138.9241  157.9875 C.3     1  UNL1        0.0118
      2 C         142.7987  140.1988  158.3248 C.3     1  UNL1        0.0179
      3 C         142.0922  141.2729  159.0977 C.3     1  UNL1        0.0724
      4 N         140.6709  141.0722  159.5331 N.3     1  UNL1       -0.2689
      5 C         139.9561  139.7974  159.1958 C.3     1  UNL1        0.0724
      6 C         140.6625  138.7234  158.4230 C.3     1  UNL1        0.0179
      7 C         142.7902  137.8499  157.2146 C.3     1  UNL1        0.0854
      8 O         141.0901  137.6077  155.2650 O.2     1  UNL1       -0.2749
      9 C         142.0221  136.9836  156.2610 C.2     1  UNL1        0.2257
     10 N         142.1860  135.4931  156.3032 N.am    1  UNL1       -0.2760
     11 C         141.4179  134.6268  155.3496 C.3     1  UNL1        0.1150
     12 C         141.5818  133.1364  155.3919 C.3     1  UNL1        0.1165
     13 N         142.5138  132.5124  156.3879 N.am    1  UNL1       -0.2605
     14 C         142.6776  131.0219  156.4301 C.2     1  UNL1        0.3073
     15 O         143.6096  130.3978  157.4261 O.2     1  UNL1       -0.2523
     16 N         141.9096  130.1556  155.4765 N.am    1  UNL1       -0.2640
     17 C         141.9700  128.6587  155.4009 C.3     1  UNL1        0.0950
     18 C         141.0440  128.2120  154.3087 C.3     1  UNL1        0.0233
     19 C         140.4112  129.4328  153.7092 C.3     1  UNL1        0.0233
     20 C         140.9462  130.6340  154.4309 C.3     1  UNL1        0.0950
     21 C         143.2818  133.3787  157.3415 C.3     1  UNL1        0.1165
     22 C         143.1179  134.8691  157.2992 C.3     1  UNL1        0.1150
     23 C         139.9645  142.1464  160.3060 C.3     1  UNL1        0.1007
     24 C         139.3076  141.8203  161.6145 C.ar    1  UNL1        0.0129
     25 C         137.8375  141.6236  161.8380 C.ar    1  UNL1        0.0176
     26 C         137.6267  141.3154  163.2908 C.ar    1  UNL1        0.0799
     27 N         138.9667  141.3216  163.9651 N.ar    1  UNL1       -0.3038
     28 C         140.0055  141.6336  162.9291 C.ar    1  UNL1        0.0772
     29 C         139.2227  141.0614  165.4200 C.ar    1  UNL1        0.0640
     30 C         138.7163  139.8015  166.0571 C.ar    1  UNL1        0.0175
     31 C         138.9724  139.5413  167.5120 C.ar    1  UNL1        0.0053
     32 C         139.7349  140.5411  168.3298 C.ar    1  UNL1        0.0715
     33 C         140.2413  141.8011  167.6928 C.ar    1  UNL1        0.0053
     34 C         139.9853  142.0613  166.2379 C.ar    1  UNL1        0.0175
     35 C         139.9910  140.2810  169.7847 C.3     1  UNL1        0.4186
     36 F         140.2470  140.0209  171.2396 F       1  UNL1       -0.1659
     37 F         141.1257  139.3695  169.4220 F       1  UNL1       -0.1659
     38 F         138.8562  141.1925  170.1475 F       1  UNL1       -0.1659
@<TRIPOS>BOND
     1     8     9    2
     2     9     7    1
     3     7     1    1
     4     1     2    1
     5     2     3    1
     6     3     4    1
     7     4    23    1
     8    23    24    1
     9    24    25   ar
    10    25    26   ar
    11    26    27   ar
    12    27    29    1
    13    29    30   ar
    14    30    31   ar
    15    31    32   ar
    16    32    35    1
    17    35    36    1
    18    35    37    1
    19    35    38    1
    20    32    33   ar
    21    33    34   ar
    22    27    28   ar
    23     4     5    1
    24     5     6    1
    25     9    10   am
    26    10    11    1
    27    11    12    1
    28    12    13    1
    29    13    14   am
    30    14    15    2
    31    14    16   am
    32    16    17    1
    33    17    18    1
    34    18    19    1
    35    19    20    1
    36    13    21    1
    37    21    22    1
    38     6     1    1
    39    22    10    1
    40    28    24   ar
    41    20    16    1
    42    34    29   ar
@<TRIPOS>MOLECULE
*****
 38 42 0 0 0
SMALL
GASTEIGER

@<TRIPOS>ATOM
      1 C         140.3223  144.9562  158.5593 C.3     1  UNL1        0.0118
      2 C         140.2622  145.7579  157.2930 C.3     1  UNL1        0.0179
      3 C         139.5644  145.2033  156.0866 C.3     1  UNL1        0.0724
      4 N         138.9266  143.8469  156.1466 N.3     1  UNL1       -0.2689
      5 C         138.9867  143.0452  157.4129 C.3     1  UNL1        0.0724
      6 C         139.6846  143.5999  158.6193 C.3     1  UNL1        0.0179
      7 C         141.0202  145.5109  159.7658 C.3     1  UNL1        0.0854
      8 O         139.1065  146.2584  161.3561 O.2     1  UNL1       -0.2749
      9 C         140.3522  145.4605  161.1079 C.2     1  UNL1        0.2257
     10 N         140.9299  144.6120  162.2017 N.am    1  UNL1       -0.2760
     11 C         140.2619  144.5616  163.5438 C.3     1  UNL1        0.1150
     12 C         140.8396  143.7132  164.6376 C.3     1  UNL1        0.1165
     13 N         142.0853  142.9152  164.3894 N.am    1  UNL1       -0.2605
     14 C         142.6629  142.0668  165.4833 C.2     1  UNL1        0.3073
     15 O         143.9086  141.2689  165.2350 O.2     1  UNL1       -0.2523
     16 N         141.9950  142.0164  166.8253 N.am    1  UNL1       -0.2640
     17 C         142.4540  141.2177  168.0091 C.3     1  UNL1        0.0950
     18 C         141.4935  141.4635  169.1347 C.3     1  UNL1        0.0233
     19 C         140.4407  142.4140  168.6466 C.3     1  UNL1        0.0233
     20 C         140.7507  142.7557  167.2193 C.3     1  UNL1        0.0950
     21 C         142.7532  142.9657  163.0473 C.3     1  UNL1        0.1165
     22 C         142.1755  143.8141  161.9535 C.3     1  UNL1        0.1150
     23 C         138.2288  143.2923  154.9402 C.3     1  UNL1        0.1007
     24 C         137.2416  142.1733  155.0931 C.ar    1  UNL1        0.0129
     25 C         137.4782  140.7346  154.7411 C.ar    1  UNL1        0.0176
     26 C         136.2273  139.9687  155.0553 C.ar    1  UNL1        0.0799
     27 N         135.2176  140.9342  155.6016 N.ar    1  UNL1       -0.3038
     28 C         135.8445  142.2967  155.6249 C.ar    1  UNL1        0.0772
     29 C         133.8255  140.5964  156.0464 C.ar    1  UNL1        0.0640
     30 C         132.6508  141.2982  155.4321 C.ar    1  UNL1        0.0175
     31 C         131.2587  140.9604  155.8769 C.ar    1  UNL1        0.0053
     32 C         131.0412  139.9208  156.9360 C.ar    1  UNL1        0.0715
     33 C         132.2159  139.2189  157.5503 C.ar    1  UNL1        0.0053
     34 C         133.6080  139.5567  157.1055 C.ar    1  UNL1        0.0175
     35 C         129.6491  139.5830  157.3808 C.3     1  UNL1        0.4186
     36 F         128.2569  139.2453  157.8255 F       1  UNL1       -0.1659
     37 F         130.2070  138.6851  158.4449 F       1  UNL1       -0.1659
     38 F         129.0911  140.4810  156.3166 F       1  UNL1       -0.1659
@<TRIPOS>BOND
     1     8     9    2
     2     9     7    1
     3     7     1    1
     4     1     2    1
     5     2     3    1
     6     3     4    1
     7     4    23    1
     8    23    24    1
     9    24    25   ar
    10    25    26   ar
    11    26    27   ar
    12    27    29    1
    13    29    30   ar
    14    30    31   ar
    15    31    32   ar
    16    32    35    1
    17    35    36    1
    18    35    37    1
    19    35    38    1
    20    32    33   ar
    21    33    34   ar
    22    27    28   ar
    23     4     5    1
    24     5     6    1
    25     9    10   am
    26    10    11    1
    27    11    12    1
    28    12    13    1
    29    13    14   am
    30    14    15    2
    31    14    16   am
    32    16    17    1
    33    17    18    1
    34    18    19    1
    35    19    20    1
    36    13    21    1
    37    21    22    1
    38     6     1    1
    39    22    10    1
    40    28    24   ar
    41    20    16    1
    42    34    29   ar
@<TRIPOS>MOLECULE
*****
 38 42 0 0 0
SMALL
GASTEIGER

@<TRIPOS>ATOM
      1 C         141.2786  139.4724  156.7821 C.3     1  UNL1        0.0118
      2 C         139.9193  140.0276  156.4754 C.3     1  UNL1        0.0179
      3 C         138.9233  140.2251  157.5794 C.3     1  UNL1        0.0724
      4 N         139.2865  139.8675  158.9901 N.3     1  UNL1       -0.2689
      5 C         140.6458  139.3123  159.2968 C.3     1  UNL1        0.0724
      6 C         141.6418  139.1148  158.1928 C.3     1  UNL1        0.0179
      7 C         142.2747  139.2749  155.6781 C.3     1  UNL1        0.0854
      8 O         144.7529  138.5834  156.0385 O.2     1  UNL1       -0.2749
      9 C         143.3216  138.2070  155.7946 C.2     1  UNL1        0.2257
     10 N         142.9371  136.7627  155.6674 N.am    1  UNL1       -0.2760
     11 C         143.9839  135.6948  155.7839 C.3     1  UNL1        0.1150
     12 C         143.5994  134.2505  155.6567 C.3     1  UNL1        0.1165
     13 N         142.1680  133.8742  155.4128 N.am    1  UNL1       -0.2605
     14 C         141.7835  132.4298  155.2855 C.2     1  UNL1        0.3073
     15 O         140.3521  132.0535  155.0416 O.2     1  UNL1       -0.2523
     16 N         142.8304  131.3620  155.4021 N.am    1  UNL1       -0.2640
     17 C         142.5975  129.8839  155.2972 C.3     1  UNL1        0.0950
     18 C         143.9171  129.1930  155.4743 C.3     1  UNL1        0.0233
     19 C         144.9656  130.2442  155.6886 C.3     1  UNL1        0.0233
     20 C         144.2939  131.5846  155.6440 C.3     1  UNL1        0.0950
     21 C         141.1211  134.9421  155.2962 C.3     1  UNL1        0.1165
     22 C         141.5057  136.3863  155.4235 C.3     1  UNL1        0.1150
     23 C         138.2904  140.0650  160.0942 C.3     1  UNL1        0.1007
     24 C         138.5072  139.4099  161.4260 C.ar    1  UNL1        0.0129
     25 C         138.4301  137.9386  161.7078 C.ar    1  UNL1        0.0176
     26 C         138.7143  137.7304  163.1658 C.ar    1  UNL1        0.0799
     27 N         138.9672  139.0730  163.7851 N.ar    1  UNL1       -0.3038
     28 C         138.8392  140.1110  162.7098 C.ar    1  UNL1        0.0772
     29 C         139.2912  139.3321  165.2266 C.ar    1  UNL1        0.0640
     30 C         138.1986  139.3232  166.2542 C.ar    1  UNL1        0.0175
     31 C         138.5225  139.5823  167.6957 C.ar    1  UNL1        0.0053
     32 C         139.9391  139.8503  168.1096 C.ar    1  UNL1        0.0715
     33 C         141.0318  139.8593  167.0820 C.ar    1  UNL1        0.0053
     34 C         140.7078  139.6002  165.6405 C.ar    1  UNL1        0.0175
     35 C         140.2631  140.1094  169.5510 C.3     1  UNL1        0.4186
     36 F         140.5871  140.3685  170.9925 F       1  UNL1       -0.1659
     37 F         139.0137  140.9287  169.6846 F       1  UNL1       -0.1659
     38 F         141.5125  139.2902  169.4175 F       1  UNL1       -0.1659
@<TRIPOS>BOND
     1     8     9    2
     2     9     7    1
     3     7     1    1
     4     1     2    1
     5     2     3    1
     6     3     4    1
     7     4    23    1
     8    23    24    1
     9    24    25   ar
    10    25    26   ar
    11    26    27   ar
    12    27    29    1
    13    29    30   ar
    14    30    31   ar
    15    31    32   ar
    16    32    35    1
    17    35    36    1
    18    35    37    1
    19    35    38    1
    20    32    33   ar
    21    33    34   ar
    22    27    28   ar
    23     4     5    1
    24     5     6    1
    25     9    10   am
    26    10    11    1
    27    11    12    1
    28    12    13    1
    29    13    14   am
    30    14    15    2
    31    14    16   am
    32    16    17    1
    33    17    18    1
    34    18    19    1
    35    19    20    1
    36    13    21    1
    37    21    22    1
    38     6     1    1
    39    22    10    1
    40    28    24   ar
    41    20    16    1
    42    34    29   ar
@<TRIPOS>MOLECULE
*****
 38 42 0 0 0
SMALL
GASTEIGER

@<TRIPOS>ATOM
      1 C         139.7885  143.5619  157.8447 C.3     1  UNL1        0.0118
      2 C         139.3587  142.7739  159.0465 C.3     1  UNL1        0.0179
      3 C         139.4233  143.3928  160.4113 C.3     1  UNL1        0.0724
      4 N         139.9175  144.7996  160.5743 N.3     1  UNL1       -0.2689
      5 C         140.3472  145.5876  159.3725 C.3     1  UNL1        0.0724
      6 C         140.2827  144.9687  158.0077 C.3     1  UNL1        0.0179
      7 C         139.7240  142.9430  156.4798 C.3     1  UNL1        0.0854
      8 O         137.8215  141.1813  156.3158 O.2     1  UNL1       -0.2749
      9 C         139.2832  141.5179  156.3225 C.2     1  UNL1        0.2257
     10 N         140.3043  140.4294  156.1719 N.am    1  UNL1       -0.2760
     11 C         139.8636  139.0042  156.0146 C.3     1  UNL1        0.1150
     12 C         140.8846  137.9158  155.8640 C.3     1  UNL1        0.1165
     13 N         142.3463  138.2524  155.8707 N.am    1  UNL1       -0.2605
     14 C         143.3674  137.1639  155.7200 C.2     1  UNL1        0.3073
     15 O         144.8291  137.5005  155.7267 O.2     1  UNL1       -0.2523
     16 N         142.9266  135.7388  155.5628 N.am    1  UNL1       -0.2640
     17 C         143.8273  134.5499  155.4031 C.3     1  UNL1        0.0950
     18 C         142.9652  133.3287  155.2792 C.3     1  UNL1        0.0233
     19 C         141.5317  133.7627  155.3623 C.3     1  UNL1        0.0233
     20 C         141.5079  135.2523  155.5376 C.3     1  UNL1        0.0950
     21 C         142.7870  139.6775  156.0279 C.3     1  UNL1        0.1165
     22 C         141.7660  140.7660  156.1785 C.3     1  UNL1        0.1150
     23 C         139.9820  145.4185  161.9393 C.3     1  UNL1        0.1007
     24 C         139.6881  144.5886  163.1537 C.ar    1  UNL1        0.0129
     25 C         138.3731  144.5105  163.8710 C.ar    1  UNL1        0.0176
     26 C         138.5299  143.5647  165.0247 C.ar    1  UNL1        0.0799
     27 N         139.9418  143.0582  165.0203 N.ar    1  UNL1       -0.3038
     28 C         140.6576  143.6910  163.8640 C.ar    1  UNL1        0.0772
     29 C         140.5340  142.0892  166.0002 C.ar    1  UNL1        0.0640
     30 C         141.9972  142.1499  166.3242 C.ar    1  UNL1        0.0175
     31 C         142.5894  141.1808  167.3041 C.ar    1  UNL1        0.0053
     32 C         141.7182  140.1510  167.9601 C.ar    1  UNL1        0.0715
     33 C         140.2548  140.0902  167.6362 C.ar    1  UNL1        0.0053
     34 C         139.6627  141.0593  166.6563 C.ar    1  UNL1        0.0175
     35 C         142.3103  139.1819  168.9400 C.3     1  UNL1        0.4186
     36 F         142.9025  138.2128  169.9199 F       1  UNL1       -0.1659
     37 F         141.3796  139.6874  170.0022 F       1  UNL1       -0.1659
     38 F         143.2411  138.6765  167.8778 F       1  UNL1       -0.1659
@<TRIPOS>BOND
     1     8     9    2
     2     9     7    1
     3     7     1    1
     4     1     2    1
     5     2     3    1
     6     3     4    1
     7     4    23    1
     8    23    24    1
     9    24    25   ar
    10    25    26   ar
    11    26    27   ar
    12    27    29    1
    13    29    30   ar
    14    30    31   ar
    15    31    32   ar
    16    32    35    1
    17    35    36    1
    18    35    37    1
    19    35    38    1
    20    32    33   ar
    21    33    34   ar
    22    27    28   ar
    23     4     5    1
    24     5     6    1
    25     9    10   am
    26    10    11    1
    27    11    12    1
    28    12    13    1
    29    13    14   am
    30    14    15    2
    31    14    16   am
    32    16    17    1
    33    17    18    1
    34    18    19    1
    35    19    20    1
    36    13    21    1
    37    21    22    1
    38     6     1    1
    39    22    10    1
    40    28    24   ar
    41    20    16    1
    42    34    29   ar
@<TRIPOS>MOLECULE
*****
 38 42 0 0 0
SMALL
GASTEIGER

@<TRIPOS>ATOM
      1 C         143.2420  139.7953  160.3060 C.3     1  UNL1        0.0118
      2 C         143.9233  140.0634  158.9969 C.3     1  UNL1        0.0179
      3 C         143.3073  139.5793  157.7178 C.3     1  UNL1        0.0724
      4 N         142.0098  138.8271  157.7478 N.3     1  UNL1       -0.2689
      5 C         141.3285  138.5590  159.0569 C.3     1  UNL1        0.0724
      6 C         141.9445  139.0431  160.3360 C.3     1  UNL1        0.0179
      7 C         143.8580  140.2794  161.5852 C.3     1  UNL1        0.0854
      8 O         142.5486  142.5059  161.8638 O.2     1  UNL1       -0.2749
      9 C         143.1152  141.2493  162.4554 C.2     1  UNL1        0.2257
     10 N         142.9389  140.9627  163.9172 N.am    1  UNL1       -0.2760
     11 C         142.1960  141.9326  164.7874 C.3     1  UNL1        0.1150
     12 C         142.0197  141.6460  166.2491 C.3     1  UNL1        0.1165
     13 N         142.5863  140.3893  166.8406 N.am    1  UNL1       -0.2605
     14 C         142.4100  140.1027  168.3025 C.2     1  UNL1        0.3073
     15 O         142.9766  138.8461  168.8940 O.2     1  UNL1       -0.2523
     16 N         141.6672  141.0727  169.1727 N.am    1  UNL1       -0.2640
     17 C         141.4128  140.9219  170.6432 C.3     1  UNL1        0.0950
     18 C         140.6367  142.1198  171.1045 C.3     1  UNL1        0.0233
     19 C         140.4113  143.0108  169.9191 C.3     1  UNL1        0.0233
     20 C         141.0482  142.3636  168.7251 C.3     1  UNL1        0.0950
     21 C         143.3292  139.4194  165.9704 C.3     1  UNL1        0.1165
     22 C         143.5055  139.7061  164.5087 C.3     1  UNL1        0.1150
     23 C         141.3938  138.3430  156.4687 C.3     1  UNL1        0.1007
     24 C         141.5039  136.8976  156.0831 C.ar    1  UNL1        0.0129
     25 C         140.8009  136.2352  154.9355 C.ar    1  UNL1        0.0176
     26 C         141.1990  134.7891  154.9206 C.ar    1  UNL1        0.0799
     27 N         142.1480  134.5577  156.0589 N.ar    1  UNL1       -0.3038
     28 C         142.3365  135.8609  156.7774 C.ar    1  UNL1        0.0772
     29 C         142.7949  133.2524  156.4161 C.ar    1  UNL1        0.0640
     30 C         142.2102  131.9643  155.9174 C.ar    1  UNL1        0.0175
     31 C         142.8571  130.6589  156.2746 C.ar    1  UNL1        0.0053
     32 C         144.0887  130.6417  157.1304 C.ar    1  UNL1        0.0715
     33 C         144.6736  131.9298  157.6292 C.ar    1  UNL1        0.0053
     34 C         144.0266  133.2351  157.2720 C.ar    1  UNL1        0.0175
     35 C         144.7357  129.3364  157.4876 C.3     1  UNL1        0.4186
     36 F         145.3826  128.0310  157.8447 F       1  UNL1       -0.1659
     37 F         144.7681  129.7471  158.9299 F       1  UNL1       -0.1659
     38 F         144.7033  128.9256  156.0452 F       1  UNL1       -0.1659
@<TRIPOS>BOND
     1     8     9    2
     2     9     7    1
     3     7     1    1
     4     1     2    1
     5     2     3    1
     6     3     4    1
     7     4    23    1
     8    23    24    1
     9    24    25   ar
    10    25    26   ar
    11    26    27   ar
    12    27    29    1
    13    29    30   ar
    14    30    31   ar
    15    31    32   ar
    16    32    35    1
    17    35    36    1
    18    35    37    1
    19    35    38    1
    20    32    33   ar
    21    33    34   ar
    22    27    28   ar
    23     4     5    1
    24     5     6    1
    25     9    10   am
    26    10    11    1
    27    11    12    1
    28    12    13    1
    29    13    14   am
    30    14    15    2
    31    14    16   am
    32    16    17    1
    33    17    18    1
    34    18    19    1
    35    19    20    1
    36    13    21    1
    37    21    22    1
    38     6     1    1
    39    22    10    1
    40    28    24   ar
    41    20    16    1
    42    34    29   ar
