@<TRIPOS>MOLECULE
*****
 38 43 0 0 0
SMALL
GASTEIGER

@<TRIPOS>ATOM
      1 C         138.5213  141.8655  164.4938 C.3     1  UNL1        0.0955
      2 C         137.9374  141.8873  163.1122 C.3     1  UNL1        0.0287
      3 C         137.9467  143.1572  162.3140 C.3     1  UNL1        0.0193
      4 C         138.5399  144.4054  162.8973 C.3     1  UNL1        0.0697
      5 C         139.1238  144.3836  164.2788 C.3     1  UNL1        0.0193
      6 C         139.1145  143.1136  165.0771 C.3     1  UNL1        0.0287
      7 C         138.5577  143.7333  163.3729 C.3     1  UNL1        0.1561
      8 O         138.5493  142.5851  164.0946 O.3     1  UNL1       -0.3571
      9 N         138.5492  145.6753  162.0991 N.3     1  UNL1       -0.2976
     10 H         138.3171  146.4304  162.7443 H       1  UNL1        0.1232
     11 C         139.7920  146.0945  161.3712 C.3     1  UNL1        0.0689
     12 C         140.3990  145.1891  160.3407 C.3     1  UNL1        0.0218
     13 C         141.7992  144.6817  160.5195 C.3     1  UNL1        0.0301
     14 C         142.2073  144.0473  161.8160 C.ar    1  UNL1        0.0075
     15 C         143.0862  144.7962  162.7735 C.ar    1  UNL1        0.0276
     16 C         143.4942  144.1618  164.0701 C.ar    1  UNL1        0.1400
     17 F         144.3732  144.9107  165.0275 F       1  UNL1       -0.2042
     18 C         143.0233  142.7786  164.4091 C.ar    1  UNL1        0.0319
     19 C         142.1444  142.0298  163.4517 C.ar    1  UNL1        0.0316
     20 C         141.7363  142.6642  162.1551 C.ar    1  UNL1        0.1363
     21 F         140.8574  141.9153  161.1977 F       1  UNL1       -0.2045
     22 C         138.5120  140.5955  165.2921 C.3     1  UNL1        0.0604
     23 O         138.9997  141.0675  170.3736 O.2     1  UNL1       -0.2670
     24 C         140.1839  140.4073  169.7320 C.ar    1  UNL1        0.2611
     25 C         141.3437  139.9653  170.5742 C.ar    1  UNL1        0.0623
     26 C         142.5280  139.3050  169.9326 C.ar    1  UNL1        0.0254
     27 C         142.5523  139.0868  168.4488 C.ar    1  UNL1        0.0972
     28 N         143.5878  138.4624  167.5497 N.ar    1  UNL1       -0.2400
     29 C         143.4706  138.3119  166.0619 C.ar    1  UNL1        0.1282
     30 C         142.2442  138.8045  165.3526 C.ar    1  UNL1        0.1588
     31 F         142.1270  138.6540  163.8648 F       1  UNL1       -0.2027
     32 C         141.1350  139.4476  166.1311 C.ar    1  UNL1        0.0500
     33 C         141.3925  139.5288  167.6066 C.ar    1  UNL1        0.0806
     34 N         140.2083  140.1890  168.2482 N.ar    1  UNL1       -0.2915
     35 C         139.2189  140.5159  167.1692 C.3     1  UNL1        0.1402
     36 C         139.7916  140.0577  165.8608 C.3     1  UNL1        0.1335
     37 O         140.0968  139.7119  164.4334 O.3     1  UNL1       -0.3806
     38 H         139.3586  139.9893  163.8686 H       1  UNL1        0.2108
@<TRIPOS>BOND
     1    23    24    2
     2    24    25   ar
     3    25    26   ar
     4    26    27   ar
     5    27    28   ar
     6    28    29   ar
     7    29    30   ar
     8    30    31    1
     9    30    32   ar
    10    32    33   ar
    11    33    34   ar
    12    34    35    1
    13    35    36    1
    14    36    37    1
    15    36    22    1
    16    22     1    1
    17     1     2    1
    18     2     3    1
    19     3     4    1
    20     4     9    1
    21     9    11    1
    22    11    12    1
    23    12    13    1
    24    13    14    1
    25    14    15   ar
    26    15    16   ar
    27    16    17    1
    28    16    18   ar
    29    18    19   ar
    30    19    20   ar
    31    20    21    1
    32     4     5    1
    33     5     6    1
    34     4     7    1
    35     7     8    1
    36    34    24   ar
    37     6     1    1
    38    33    27   ar
    39     8     1    1
    40    36    32    1
    41    20    14   ar
    42    37    38    1
    43     9    10    1
@<TRIPOS>MOLECULE
*****
 38 43 0 0 0
SMALL
GASTEIGER

@<TRIPOS>ATOM
      1 C         142.2882  141.3318  163.6253 C.3     1  UNL1        0.0955
      2 C         142.7847  142.6805  164.0553 C.3     1  UNL1        0.0287
      3 C         142.6974  143.8464  163.1156 C.3     1  UNL1        0.0193
      4 C         142.1136  143.6638  161.7460 C.3     1  UNL1        0.0697
      5 C         141.6172  142.3152  161.3161 C.3     1  UNL1        0.0193
      6 C         141.7044  141.1492  162.2557 C.3     1  UNL1        0.0287
      7 C         142.1405  142.9951  162.2259 C.3     1  UNL1        0.1561
      8 O         142.2194  141.9409  163.0756 O.3     1  UNL1       -0.3571
      9 N         142.0263  144.8297  160.8063 N.3     1  UNL1       -0.2976
     10 H         142.3872  144.5109  159.9072 H       1  UNL1        0.1232
     11 C         140.7006  145.4772  160.5359 C.3     1  UNL1        0.0689
     12 C         139.9798  146.1984  161.6361 C.3     1  UNL1        0.0218
     13 C         138.6987  145.6427  162.1837 C.3     1  UNL1        0.0301
     14 C         138.7294  144.4762  163.1262 C.ar    1  UNL1        0.0075
     15 C         139.3081  144.6376  164.5007 C.ar    1  UNL1        0.0276
     16 C         139.3389  143.4711  165.4432 C.ar    1  UNL1        0.1400
     17 F         139.9175  143.6325  166.8177 F       1  UNL1       -0.2042
     18 C         138.7909  142.1432  165.0112 C.ar    1  UNL1        0.0319
     19 C         138.2122  141.9819  163.6368 C.ar    1  UNL1        0.0316
     20 C         138.1815  143.1484  162.6943 C.ar    1  UNL1        0.1363
     21 F         137.6028  142.9870  161.3199 F       1  UNL1       -0.2045
     22 C         142.3755  140.1659  164.5650 C.3     1  UNL1        0.0604
     23 O         142.6073  142.3616  169.1919 O.2     1  UNL1       -0.2670
     24 C         141.3839  141.5132  169.0085 C.ar    1  UNL1        0.2611
     25 C         140.3881  141.3824  170.1226 C.ar    1  UNL1        0.0623
     26 C         139.1647  140.5340  169.9393 C.ar    1  UNL1        0.0254
     27 C         138.9372  139.8164  168.6419 C.ar    1  UNL1        0.0972
     28 N         137.8209  138.9137  168.1843 N.ar    1  UNL1       -0.2400
     29 C         137.7286  138.2591  166.8378 C.ar    1  UNL1        0.1282
     30 C         138.8065  138.4837  165.8192 C.ar    1  UNL1        0.1588
     31 F         138.7142  137.8291  164.4728 F       1  UNL1       -0.2027
     32 C         139.9769  139.3628  166.1471 C.ar    1  UNL1        0.0500
     33 C         139.9330  139.9472  167.5279 C.ar    1  UNL1        0.0806
     34 N         141.1564  140.7956  167.7112 N.ar    1  UNL1       -0.2915
     35 C         141.9563  140.7355  166.4437 C.3     1  UNL1        0.1402
     36 C         141.2273  139.8500  165.4770 C.3     1  UNL1        0.1335
     37 O         140.7383  139.0305  164.3197 O.3     1  UNL1       -0.3806
     38 H         141.3682  139.1001  163.5853 H       1  UNL1        0.2108
@<TRIPOS>BOND
     1    23    24    2
     2    24    25   ar
     3    25    26   ar
     4    26    27   ar
     5    27    28   ar
     6    28    29   ar
     7    29    30   ar
     8    30    31    1
     9    30    32   ar
    10    32    33   ar
    11    33    34   ar
    12    34    35    1
    13    35    36    1
    14    36    37    1
    15    36    22    1
    16    22     1    1
    17     1     2    1
    18     2     3    1
    19     3     4    1
    20     4     9    1
    21     9    11    1
    22    11    12    1
    23    12    13    1
    24    13    14    1
    25    14    15   ar
    26    15    16   ar
    27    16    17    1
    28    16    18   ar
    29    18    19   ar
    30    19    20   ar
    31    20    21    1
    32     4     5    1
    33     5     6    1
    34     4     7    1
    35     7     8    1
    36    34    24   ar
    37     6     1    1
    38    33    27   ar
    39     8     1    1
    40    36    32    1
    41    20    14   ar
    42    37    38    1
    43     9    10    1
@<TRIPOS>MOLECULE
*****
 38 43 0 0 0
SMALL
GASTEIGER

@<TRIPOS>ATOM
      1 C         138.3893  141.6785  164.7899 C.3     1  UNL1        0.0955
      2 C         138.2357  140.2588  165.2492 C.3     1  UNL1        0.0287
      3 C         139.1291  139.7181  166.3260 C.3     1  UNL1        0.0193
      4 C         140.1761  140.5970  166.9434 C.3     1  UNL1        0.0697
      5 C         140.3297  142.0167  166.4841 C.3     1  UNL1        0.0193
      6 C         139.4363  142.5575  165.4073 C.3     1  UNL1        0.0287
      7 C         139.7099  140.9380  166.3565 C.3     1  UNL1        0.1561
      8 O         138.9021  141.4269  165.3829 O.3     1  UNL1       -0.3571
      9 N         141.0696  140.0563  168.0202 N.3     1  UNL1       -0.2976
     10 H         140.7213  139.1262  168.2523 H       1  UNL1        0.1232
     11 C         142.5426  139.9180  167.7732 C.3     1  UNL1        0.0689
     12 C         143.0875  138.6545  167.1759 C.3     1  UNL1        0.0218
     13 C         143.5181  138.6289  165.7392 C.3     1  UNL1        0.0301
     14 C         142.5383  138.9718  164.6564 C.ar    1  UNL1        0.0075
     15 C         142.5626  140.3329  164.0265 C.ar    1  UNL1        0.0276
     16 C         141.5828  140.6758  162.9436 C.ar    1  UNL1        0.1400
     17 F         141.6071  142.0369  162.3137 F       1  UNL1       -0.2042
     18 C         140.5788  139.6574  162.4908 C.ar    1  UNL1        0.0319
     19 C         140.5546  138.2964  163.1207 C.ar    1  UNL1        0.0316
     20 C         141.5344  137.9535  164.2035 C.ar    1  UNL1        0.1363
     21 F         141.5101  136.5924  164.8334 F       1  UNL1       -0.2045
     22 C         137.4959  142.2192  163.7131 C.3     1  UNL1        0.0604
     23 O         140.2962  146.1676  162.0247 O.2     1  UNL1       -0.2670
     24 C         140.0514  145.1312  160.9683 C.ar    1  UNL1        0.2611
     25 C         140.6097  145.3196  159.5890 C.ar    1  UNL1        0.0623
     26 C         140.3648  144.2832  158.5326 C.ar    1  UNL1        0.0254
     27 C         139.5617  143.0583  158.8557 C.ar    1  UNL1        0.0972
     28 N         139.1641  141.8753  158.0113 N.ar    1  UNL1       -0.2400
     29 C         138.3464  140.7082  158.4796 C.ar    1  UNL1        0.1282
     30 C         137.8544  140.6573  159.8957 C.ar    1  UNL1        0.1588
     31 F         137.0368  139.4902  160.3640 F       1  UNL1       -0.2027
     32 C         138.1801  141.7734  160.8435 C.ar    1  UNL1        0.0500
     33 C         139.0034  142.8698  160.2351 C.ar    1  UNL1        0.0806
     34 N         139.2482  143.9062  161.2914 N.ar    1  UNL1       -0.2915
     35 C         138.5763  143.4503  162.5526 C.3     1  UNL1        0.1402
     36 C         137.9162  142.1322  162.2758 C.3     1  UNL1        0.1335
     37 O         137.1682  140.8322  162.2995 O.3     1  UNL1       -0.3806
     38 H         136.7972  140.6886  163.1841 H       1  UNL1        0.2108
@<TRIPOS>BOND
     1    23    24    2
     2    24    25   ar
     3    25    26   ar
     4    26    27   ar
     5    27    28   ar
     6    28    29   ar
     7    29    30   ar
     8    30    31    1
     9    30    32   ar
    10    32    33   ar
    11    33    34   ar
    12    34    35    1
    13    35    36    1
    14    36    37    1
    15    36    22    1
    16    22     1    1
    17     1     2    1
    18     2     3    1
    19     3     4    1
    20     4     9    1
    21     9    11    1
    22    11    12    1
    23    12    13    1
    24    13    14    1
    25    14    15   ar
    26    15    16   ar
    27    16    17    1
    28    16    18   ar
    29    18    19   ar
    30    19    20   ar
    31    20    21    1
    32     4     5    1
    33     5     6    1
    34     4     7    1
    35     7     8    1
    36    34    24   ar
    37     6     1    1
    38    33    27   ar
    39     8     1    1
    40    36    32    1
    41    20    14   ar
    42    37    38    1
    43     9    10    1
@<TRIPOS>MOLECULE
*****
 38 43 0 0 0
SMALL
GASTEIGER

@<TRIPOS>ATOM
      1 C         142.7728  142.1625  164.4421 C.3     1  UNL1        0.0955
      2 C         142.0891  141.6570  163.2062 C.3     1  UNL1        0.0287
      3 C         141.8592  142.5793  162.0458 C.3     1  UNL1        0.0193
      4 C         142.3129  144.0070  162.1212 C.3     1  UNL1        0.0697
      5 C         142.9966  144.5124  163.3569 C.3     1  UNL1        0.0193
      6 C         143.2265  143.5902  164.5174 C.3     1  UNL1        0.0287
      7 C         142.4610  143.5392  162.7825 C.3     1  UNL1        0.1561
      8 O         142.6689  142.7053  163.8317 O.3     1  UNL1       -0.3571
      9 N         142.0830  144.9293  160.9608 N.3     1  UNL1       -0.2976
     10 H         142.3363  144.4121  160.1189 H       1  UNL1        0.1232
     11 C         140.7197  145.5068  160.7205 C.3     1  UNL1        0.0689
     12 C         139.9698  146.1534  161.8474 C.3     1  UNL1        0.0218
     13 C         138.6282  145.6226  162.2576 C.3     1  UNL1        0.0301
     14 C         138.5166  144.2567  162.8675 C.ar    1  UNL1        0.0075
     15 C         137.9264  143.1277  162.0756 C.ar    1  UNL1        0.0276
     16 C         137.8147  141.7619  162.6855 C.ar    1  UNL1        0.1400
     17 F         137.2245  140.6329  161.8936 F       1  UNL1       -0.2042
     18 C         138.2933  141.5250  164.0873 C.ar    1  UNL1        0.0319
     19 C         138.8835  142.6540  164.8791 C.ar    1  UNL1        0.0316
     20 C         138.9951  144.0199  164.2692 C.ar    1  UNL1        0.1363
     21 F         139.5853  145.1489  165.0611 F       1  UNL1       -0.2045
     22 C         143.0027  141.2402  165.6025 C.3     1  UNL1        0.0604
     23 O         139.4840  137.8395  164.0738 O.2     1  UNL1       -0.2670
     24 C         139.2066  138.3930  165.4401 C.ar    1  UNL1        0.2611
     25 C         137.9983  137.9368  166.2029 C.ar    1  UNL1        0.0623
     26 C         137.7209  138.4902  167.5692 C.ar    1  UNL1        0.0254
     27 C         138.6517  139.4998  168.1726 C.ar    1  UNL1        0.0972
     28 N         138.6244  140.2132  169.4996 N.ar    1  UNL1       -0.2400
     29 C         139.6398  141.2114  169.9712 C.ar    1  UNL1        0.1282
     30 C         140.8020  141.5708  169.0937 C.ar    1  UNL1        0.1588
     31 F         141.8174  142.5690  169.5654 F       1  UNL1       -0.2027
     32 C         140.9488  140.9319  167.7445 C.ar    1  UNL1        0.0500
     33 C         139.8600  139.9560  167.4098 C.ar    1  UNL1        0.0806
     34 N         140.1374  139.4026  166.0435 N.ar    1  UNL1       -0.2915
     35 C         141.3977  140.0364  165.5338 C.3     1  UNL1        0.1402
     36 C         141.8993  140.9816  166.5851 C.3     1  UNL1        0.1335
     37 O         142.6314  141.9808  167.4309 O.3     1  UNL1       -0.3806
     38 H         143.4188  142.2907  166.9567 H       1  UNL1        0.2108
@<TRIPOS>BOND
     1    23    24    2
     2    24    25   ar
     3    25    26   ar
     4    26    27   ar
     5    27    28   ar
     6    28    29   ar
     7    29    30   ar
     8    30    31    1
     9    30    32   ar
    10    32    33   ar
    11    33    34   ar
    12    34    35    1
    13    35    36    1
    14    36    37    1
    15    36    22    1
    16    22     1    1
    17     1     2    1
    18     2     3    1
    19     3     4    1
    20     4     9    1
    21     9    11    1
    22    11    12    1
    23    12    13    1
    24    13    14    1
    25    14    15   ar
    26    15    16   ar
    27    16    17    1
    28    16    18   ar
    29    18    19   ar
    30    19    20   ar
    31    20    21    1
    32     4     5    1
    33     5     6    1
    34     4     7    1
    35     7     8    1
    36    34    24   ar
    37     6     1    1
    38    33    27   ar
    39     8     1    1
    40    36    32    1
    41    20    14   ar
    42    37    38    1
    43     9    10    1
@<TRIPOS>MOLECULE
*****
 38 43 0 0 0
SMALL
GASTEIGER

@<TRIPOS>ATOM
      1 C         142.8840  142.1146  164.0573 C.3     1  UNL1        0.0955
      2 C         142.7962  141.6960  162.6195 C.3     1  UNL1        0.0287
      3 C         142.5447  142.7214  161.5539 C.3     1  UNL1        0.0193
      4 C         142.3811  144.1652  161.9261 C.3     1  UNL1        0.0697
      5 C         142.4690  144.5837  163.3638 C.3     1  UNL1        0.0193
      6 C         142.7205  143.5584  164.4295 C.3     1  UNL1        0.0287
      7 C         142.5174  143.6396  162.5451 C.3     1  UNL1        0.1561
      8 O         142.7448  142.7125  163.5086 O.3     1  UNL1       -0.3571
      9 N         142.1297  145.1906  160.8605 N.3     1  UNL1       -0.2976
     10 H         142.8321  145.0409  160.1362 H       1  UNL1        0.1232
     11 C         140.7994  145.2433  160.1694 C.3     1  UNL1        0.0689
     12 C         139.6476  145.9567  160.8131 C.3     1  UNL1        0.0218
     13 C         139.3712  145.7683  162.2754 C.3     1  UNL1        0.0301
     14 C         138.8275  144.4621  162.7737 C.ar    1  UNL1        0.0075
     15 C         138.4294  143.3944  161.7982 C.ar    1  UNL1        0.0276
     16 C         137.8857  142.0882  162.2965 C.ar    1  UNL1        0.1400
     17 F         137.4876  141.0205  161.3211 F       1  UNL1       -0.2042
     18 C         137.7401  141.8499  163.7704 C.ar    1  UNL1        0.0319
     19 C         138.1382  142.9176  164.7457 C.ar    1  UNL1        0.0316
     20 C         138.6819  144.2238  164.2474 C.ar    1  UNL1        0.1363
     21 F         139.0800  145.2915  165.2228 F       1  UNL1       -0.2045
     22 C         143.1355  141.0892  165.1229 C.3     1  UNL1        0.0604
     23 O         144.1685  142.6150  169.9069 O.2     1  UNL1       -0.2670
     24 C         142.8373  141.9346  169.7855 C.ar    1  UNL1        0.2611
     25 C         141.9684  141.7650  170.9964 C.ar    1  UNL1        0.0623
     26 C         140.6372  141.0846  170.8749 C.ar    1  UNL1        0.0254
     27 C         140.1747  140.5738  169.5426 C.ar    1  UNL1        0.0972
     28 N         138.9107  139.8646  169.1307 N.ar    1  UNL1       -0.2400
     29 C         138.5836  139.4078  167.7399 C.ar    1  UNL1        0.1282
     30 C         139.5559  139.6484  166.6234 C.ar    1  UNL1        0.1588
     31 F         139.2288  139.1916  165.2326 F       1  UNL1       -0.2027
     32 C         140.8554  140.3457  166.8976 C.ar    1  UNL1        0.0500
     33 C         141.0436  140.7433  168.3317 C.ar    1  UNL1        0.0806
     34 N         142.3748  141.4238  168.4531 N.ar    1  UNL1       -0.2915
     35 C         143.0094  141.4466  167.0941 C.3     1  UNL1        0.1402
     36 C         142.0703  140.7803  166.1328 C.3     1  UNL1        0.1335
     37 O         141.3539  140.1786  164.9603 O.3     1  UNL1       -0.3806
     38 H         141.8984  140.2768  164.1636 H       1  UNL1        0.2108
@<TRIPOS>BOND
     1    23    24    2
     2    24    25   ar
     3    25    26   ar
     4    26    27   ar
     5    27    28   ar
     6    28    29   ar
     7    29    30   ar
     8    30    31    1
     9    30    32   ar
    10    32    33   ar
    11    33    34   ar
    12    34    35    1
    13    35    36    1
    14    36    37    1
    15    36    22    1
    16    22     1    1
    17     1     2    1
    18     2     3    1
    19     3     4    1
    20     4     9    1
    21     9    11    1
    22    11    12    1
    23    12    13    1
    24    13    14    1
    25    14    15   ar
    26    15    16   ar
    27    16    17    1
    28    16    18   ar
    29    18    19   ar
    30    19    20   ar
    31    20    21    1
    32     4     5    1
    33     5     6    1
    34     4     7    1
    35     7     8    1
    36    34    24   ar
    37     6     1    1
    38    33    27   ar
    39     8     1    1
    40    36    32    1
    41    20    14   ar
    42    37    38    1
    43     9    10    1
@<TRIPOS>MOLECULE
*****
 38 43 0 0 0
SMALL
GASTEIGER

@<TRIPOS>ATOM
      1 C         142.6171  142.9574  164.0735 C.3     1  UNL1        0.0955
      2 C         143.2664  142.5524  162.7833 C.3     1  UNL1        0.0287
      3 C         143.0187  143.3490  161.5366 C.3     1  UNL1        0.0193
      4 C         142.1217  144.5505  161.5801 C.3     1  UNL1        0.0697
      5 C         141.4725  144.9554  162.8703 C.3     1  UNL1        0.0193
      6 C         141.7202  144.1589  164.1170 C.3     1  UNL1        0.0287
      7 C         142.2274  144.1452  162.2892 C.3     1  UNL1        0.1561
      8 O         142.4514  143.4250  163.4164 O.3     1  UNL1       -0.3571
      9 N         141.8740  145.3471  160.3335 N.3     1  UNL1       -0.2976
     10 H         142.7814  145.6894  160.0176 H       1  UNL1        0.1232
     11 C         141.2184  144.7015  159.1489 C.3     1  UNL1        0.0689
     12 C         139.8405  144.1226  159.2773 C.3     1  UNL1        0.0218
     13 C         139.6636  142.6917  159.6909 C.3     1  UNL1        0.0301
     14 C         138.8936  142.3602  160.9348 C.ar    1  UNL1        0.0075
     15 C         138.5233  143.4473  161.8997 C.ar    1  UNL1        0.0276
     16 C         137.7533  143.1158  163.1435 C.ar    1  UNL1        0.1400
     17 F         137.3829  144.2029  164.1084 F       1  UNL1       -0.2042
     18 C         137.3537  141.6971  163.4225 C.ar    1  UNL1        0.0319
     19 C         137.7241  140.6101  162.4576 C.ar    1  UNL1        0.0316
     20 C         138.4941  140.9416  161.2137 C.ar    1  UNL1        0.1363
     21 F         138.8644  139.8545  160.2488 F       1  UNL1       -0.2045
     22 C         142.8648  142.1608  165.3201 C.3     1  UNL1        0.0604
     23 O         141.8814  143.3919  170.1986 O.2     1  UNL1       -0.2670
     24 C         140.9766  142.3167  169.6737 C.ar    1  UNL1        0.2611
     25 C         139.9225  141.7242  170.5612 C.ar    1  UNL1        0.0623
     26 C         139.0177  140.6490  170.0363 C.ar    1  UNL1        0.0254
     27 C         139.1671  140.1664  168.6240 C.ar    1  UNL1        0.0972
     28 N         138.4147  139.1205  167.8428 N.ar    1  UNL1       -0.2400
     29 C         138.6815  138.7412  166.4164 C.ar    1  UNL1        0.1282
     30 C         139.7755  139.4245  165.6507 C.ar    1  UNL1        0.1588
     31 F         140.0423  139.0452  164.2242 F       1  UNL1       -0.2027
     32 C         140.6026  140.4871  166.3115 C.ar    1  UNL1        0.0500
     33 C         140.2213  140.7590  167.7365 C.ar    1  UNL1        0.0806
     34 N         141.1260  141.8341  168.2614 N.ar    1  UNL1       -0.2915
     35 C         142.0665  142.2267  167.1608 C.3     1  UNL1        0.1402
     36 C         141.7430  141.3942  165.9557 C.3     1  UNL1        0.1335
     37 O         141.6540  140.7220  164.6177 O.3     1  UNL1       -0.3806
     38 H         142.3283  141.0901  164.0254 H       1  UNL1        0.2108
@<TRIPOS>BOND
     1    23    24    2
     2    24    25   ar
     3    25    26   ar
     4    26    27   ar
     5    27    28   ar
     6    28    29   ar
     7    29    30   ar
     8    30    31    1
     9    30    32   ar
    10    32    33   ar
    11    33    34   ar
    12    34    35    1
    13    35    36    1
    14    36    37    1
    15    36    22    1
    16    22     1    1
    17     1     2    1
    18     2     3    1
    19     3     4    1
    20     4     9    1
    21     9    11    1
    22    11    12    1
    23    12    13    1
    24    13    14    1
    25    14    15   ar
    26    15    16   ar
    27    16    17    1
    28    16    18   ar
    29    18    19   ar
    30    19    20   ar
    31    20    21    1
    32     4     5    1
    33     5     6    1
    34     4     7    1
    35     7     8    1
    36    34    24   ar
    37     6     1    1
    38    33    27   ar
    39     8     1    1
    40    36    32    1
    41    20    14   ar
    42    37    38    1
    43     9    10    1
@<TRIPOS>MOLECULE
*****
 38 43 0 0 0
SMALL
GASTEIGER

@<TRIPOS>ATOM
      1 C         138.8387  138.9522  164.2006 C.3     1  UNL1        0.0955
      2 C         138.0870  140.2190  163.9170 C.3     1  UNL1        0.0287
      3 C         137.5465  140.4785  162.5420 C.3     1  UNL1        0.0193
      4 C         137.7576  139.4713  161.4507 C.3     1  UNL1        0.0697
      5 C         138.5093  138.2046  161.7344 C.3     1  UNL1        0.0193
      6 C         139.0498  137.9450  163.1094 C.3     1  UNL1        0.0287
      7 C         138.0725  139.2849  162.1884 C.3     1  UNL1        0.1561
      8 O         138.5612  139.0502  163.4316 O.3     1  UNL1       -0.3571
      9 N         137.2171  139.7307  160.0757 N.3     1  UNL1       -0.2976
     10 H         136.3357  140.2301  160.1952 H       1  UNL1        0.1232
     11 C         138.0281  140.5143  159.0867 C.3     1  UNL1        0.0689
     12 C         139.5209  140.3697  159.0587 C.3     1  UNL1        0.0218
     13 C         140.3947  141.5772  159.2275 C.3     1  UNL1        0.0301
     14 C         140.3285  142.3800  160.4928 C.ar    1  UNL1        0.0075
     15 C         139.8272  143.7934  160.4589 C.ar    1  UNL1        0.0276
     16 C         139.7609  144.5962  161.7242 C.ar    1  UNL1        0.1400
     17 F         139.2596  146.0096  161.6903 F       1  UNL1       -0.2042
     18 C         140.1960  143.9856  163.0234 C.ar    1  UNL1        0.0319
     19 C         140.6972  142.5724  163.0573 C.ar    1  UNL1        0.0316
     20 C         140.7635  141.7695  161.7920 C.ar    1  UNL1        0.1363
     21 F         141.2648  140.3562  161.8259 F       1  UNL1       -0.2045
     22 C         139.3792  138.6927  165.5756 C.3     1  UNL1        0.0604
     23 O         138.0845  140.0963  170.3334 O.2     1  UNL1       -0.2670
     24 C         139.3330  140.7692  169.8452 C.ar    1  UNL1        0.2611
     25 C         140.0583  141.7382  170.7313 C.ar    1  UNL1        0.0623
     26 C         141.3068  142.4111  170.2431 C.ar    1  UNL1        0.0254
     27 C         141.8302  142.1151  168.8689 C.ar    1  UNL1        0.0972
     28 N         143.0363  142.6323  168.1285 N.ar    1  UNL1       -0.2400
     29 C         143.4376  142.2388  166.7378 C.ar    1  UNL1        0.1282
     30 C         142.6094  141.2524  165.9690 C.ar    1  UNL1        0.1588
     31 F         143.0108  140.8589  164.5783 F       1  UNL1       -0.2027
     32 C         141.3799  140.6595  166.5909 C.ar    1  UNL1        0.0500
     33 C         141.1049  141.1461  167.9829 C.ar    1  UNL1        0.0806
     34 N         139.8564  140.4732  168.4710 N.ar    1  UNL1       -0.2915
     35 C         139.3597  139.5707  167.3807 C.3     1  UNL1        0.1402
     36 C         140.3013  139.6858  166.2188 C.3     1  UNL1        0.1335
     37 O         141.0501  139.5933  164.9223 O.3     1  UNL1       -0.3806
     38 H         140.5983  138.9705  164.3317 H       1  UNL1        0.2108
@<TRIPOS>BOND
     1    23    24    2
     2    24    25   ar
     3    25    26   ar
     4    26    27   ar
     5    27    28   ar
     6    28    29   ar
     7    29    30   ar
     8    30    31    1
     9    30    32   ar
    10    32    33   ar
    11    33    34   ar
    12    34    35    1
    13    35    36    1
    14    36    37    1
    15    36    22    1
    16    22     1    1
    17     1     2    1
    18     2     3    1
    19     3     4    1
    20     4     9    1
    21     9    11    1
    22    11    12    1
    23    12    13    1
    24    13    14    1
    25    14    15   ar
    26    15    16   ar
    27    16    17    1
    28    16    18   ar
    29    18    19   ar
    30    19    20   ar
    31    20    21    1
    32     4     5    1
    33     5     6    1
    34     4     7    1
    35     7     8    1
    36    34    24   ar
    37     6     1    1
    38    33    27   ar
    39     8     1    1
    40    36    32    1
    41    20    14   ar
    42    37    38    1
    43     9    10    1
@<TRIPOS>MOLECULE
*****
 38 43 0 0 0
SMALL
GASTEIGER

@<TRIPOS>ATOM
      1 C         141.0358  143.3135  164.9752 C.3     1  UNL1        0.0955
      2 C         141.8014  142.5382  166.0063 C.3     1  UNL1        0.0287
      3 C         141.1463  141.3962  166.7252 C.3     1  UNL1        0.0193
      4 C         139.7258  141.0294  166.4129 C.3     1  UNL1        0.0697
      5 C         138.9603  141.8046  165.3819 C.3     1  UNL1        0.0193
      6 C         139.6153  142.9466  164.6630 C.3     1  UNL1        0.0287
      7 C         140.0422  141.6631  165.9930 C.3     1  UNL1        0.1561
      8 O         140.6345  142.6957  165.3430 O.3     1  UNL1       -0.3571
      9 N         139.0707  139.8873  167.1317 N.3     1  UNL1       -0.2976
     10 H         138.5733  140.2868  167.9276 H       1  UNL1        0.1232
     11 C         138.0948  139.0070  166.4088 C.3     1  UNL1        0.0689
     12 C         138.5435  137.6878  165.8534 C.3     1  UNL1        0.0218
     13 C         139.1596  137.6195  164.4874 C.3     1  UNL1        0.0301
     14 C         140.4199  138.3783  164.1943 C.ar    1  UNL1        0.0075
     15 C         141.6703  138.0832  164.9685 C.ar    1  UNL1        0.0276
     16 C         142.9306  138.8420  164.6754 C.ar    1  UNL1        0.1400
     17 F         144.1810  138.5469  165.4496 F       1  UNL1       -0.2042
     18 C         142.9403  139.8959  163.6080 C.ar    1  UNL1        0.0319
     19 C         141.6900  140.1910  162.8339 C.ar    1  UNL1        0.0316
     20 C         140.4297  139.4322  163.1270 C.ar    1  UNL1        0.1363
     21 F         139.1793  139.7273  162.3528 F       1  UNL1       -0.2045
     22 C         141.6909  144.4555  164.2564 C.3     1  UNL1        0.0604
     23 O         145.2223  141.7176  161.7434 O.2     1  UNL1       -0.2670
     24 C         144.2990  142.4627  160.8257 C.ar    1  UNL1        0.2611
     25 C         144.4707  142.3548  159.3395 C.ar    1  UNL1        0.0623
     26 C         143.5474  143.0999  158.4217 C.ar    1  UNL1        0.0254
     27 C         142.4523  143.9528  158.9902 C.ar    1  UNL1        0.0972
     28 N         141.3975  144.7969  158.3227 N.ar    1  UNL1       -0.2400
     29 C         140.3537  145.6067  159.0331 C.ar    1  UNL1        0.1282
     30 C         140.3047  145.6175  160.5323 C.ar    1  UNL1        0.1588
     31 F         139.2610  146.4273  161.2427 F       1  UNL1       -0.2027
     32 C         141.2995  144.8185  161.3210 C.ar    1  UNL1        0.0500
     33 C         142.2805  144.0607  160.4764 C.ar    1  UNL1        0.0806
     34 N         143.2039  143.3156  161.3941 N.ar    1  UNL1       -0.2915
     35 C         142.7935  143.6130  162.8059 C.3     1  UNL1        0.1402
     36 C         141.6166  144.5418  162.7608 C.3     1  UNL1        0.1335
     37 O         140.4552  145.4526  163.0282 O.3     1  UNL1       -0.3806
     38 H         140.3248  145.5376  163.9857 H       1  UNL1        0.2108
@<TRIPOS>BOND
     1    23    24    2
     2    24    25   ar
     3    25    26   ar
     4    26    27   ar
     5    27    28   ar
     6    28    29   ar
     7    29    30   ar
     8    30    31    1
     9    30    32   ar
    10    32    33   ar
    11    33    34   ar
    12    34    35    1
    13    35    36    1
    14    36    37    1
    15    36    22    1
    16    22     1    1
    17     1     2    1
    18     2     3    1
    19     3     4    1
    20     4     9    1
    21     9    11    1
    22    11    12    1
    23    12    13    1
    24    13    14    1
    25    14    15   ar
    26    15    16   ar
    27    16    17    1
    28    16    18   ar
    29    18    19   ar
    30    19    20   ar
    31    20    21    1
    32     4     5    1
    33     5     6    1
    34     4     7    1
    35     7     8    1
    36    34    24   ar
    37     6     1    1
    38    33    27   ar
    39     8     1    1
    40    36    32    1
    41    20    14   ar
    42    37    38    1
    43     9    10    1
@<TRIPOS>MOLECULE
*****
 38 43 0 0 0
SMALL
GASTEIGER

@<TRIPOS>ATOM
      1 C         138.7225  138.4226  163.8558 C.3     1  UNL1        0.0955
      2 C         138.6456  137.3839  164.9354 C.3     1  UNL1        0.0287
      3 C         138.6474  137.7988  166.3769 C.3     1  UNL1        0.0193
      4 C         138.7259  139.2524  166.7388 C.3     1  UNL1        0.0697
      5 C         138.8027  140.2910  165.6593 C.3     1  UNL1        0.0193
      6 C         138.8010  139.8761  164.2178 C.3     1  UNL1        0.0287
      7 C         138.7279  139.0734  165.9350 C.3     1  UNL1        0.1561
      8 O         138.7264  138.6983  164.6317 O.3     1  UNL1       -0.3571
      9 N         138.7276  139.6673  168.1803 N.3     1  UNL1       -0.2976
     10 H         138.8430  138.8168  168.7314 H       1  UNL1        0.1232
     11 C         139.7486  140.6473  168.6774 C.3     1  UNL1        0.0689
     12 C         141.0825  140.1603  169.1608 C.3     1  UNL1        0.0218
     13 C         142.0131  139.4602  168.2154 C.3     1  UNL1        0.0301
     14 C         142.4864  140.1579  166.9747 C.ar    1  UNL1        0.0075
     15 C         143.0273  141.5544  167.0596 C.ar    1  UNL1        0.0276
     16 C         143.5006  142.2520  165.8189 C.ar    1  UNL1        0.1400
     17 F         144.0415  143.6485  165.9037 F       1  UNL1       -0.2042
     18 C         143.4330  141.5530  164.4933 C.ar    1  UNL1        0.0319
     19 C         142.8921  140.1566  164.4086 C.ar    1  UNL1        0.0316
     20 C         142.4188  139.4590  165.6493 C.ar    1  UNL1        0.1363
     21 F         141.8779  138.0625  165.5644 F       1  UNL1       -0.2045
     22 C         138.7207  138.0077  162.4143 C.3     1  UNL1        0.0604
     23 O         137.5975  140.2330  157.9345 O.2     1  UNL1       -0.2670
     24 C         139.0690  140.0126  158.1245 C.ar    1  UNL1        0.2611
     25 C         140.0345  140.4339  157.0567 C.ar    1  UNL1        0.0623
     26 C         141.5060  140.2135  157.2467 C.ar    1  UNL1        0.0254
     27 C         142.0120  139.5718  158.5045 C.ar    1  UNL1        0.0972
     28 N         143.4081  139.2327  158.9589 N.ar    1  UNL1       -0.2400
     29 C         143.7642  138.5824  160.2628 C.ar    1  UNL1        0.1282
     30 C         142.6846  138.2154  161.2374 C.ar    1  UNL1        0.1588
     31 F         143.0408  137.5651  162.5413 F       1  UNL1       -0.2027
     32 C         141.2489  138.4987  160.9081 C.ar    1  UNL1        0.0500
     33 C         141.0465  139.1505  159.5723 C.ar    1  UNL1        0.0806
     34 N         139.5750  139.3709  159.3823 N.ar    1  UNL1       -0.2915
     35 C         138.8680  138.8553  160.6007 C.3     1  UNL1        0.1402
     36 C         139.9025  138.3163  161.5436 C.3     1  UNL1        0.1335
     37 O         140.6900  137.7127  162.6686 O.3     1  UNL1       -0.3806
     38 H         140.0848  137.4321  163.3728 H       1  UNL1        0.2108
@<TRIPOS>BOND
     1    23    24    2
     2    24    25   ar
     3    25    26   ar
     4    26    27   ar
     5    27    28   ar
     6    28    29   ar
     7    29    30   ar
     8    30    31    1
     9    30    32   ar
    10    32    33   ar
    11    33    34   ar
    12    34    35    1
    13    35    36    1
    14    36    37    1
    15    36    22    1
    16    22     1    1
    17     1     2    1
    18     2     3    1
    19     3     4    1
    20     4     9    1
    21     9    11    1
    22    11    12    1
    23    12    13    1
    24    13    14    1
    25    14    15   ar
    26    15    16   ar
    27    16    17    1
    28    16    18   ar
    29    18    19   ar
    30    19    20   ar
    31    20    21    1
    32     4     5    1
    33     5     6    1
    34     4     7    1
    35     7     8    1
    36    34    24   ar
    37     6     1    1
    38    33    27   ar
    39     8     1    1
    40    36    32    1
    41    20    14   ar
    42    37    38    1
    43     9    10    1
