@<TRIPOS>MOLECULE
*****
 35 39 0 0 0
SMALL
GASTEIGER

@<TRIPOS>ATOM
      1 C         142.3680  142.9699  160.6309 C.3     1  UNL1        0.0730
      2 N         141.6703  143.6954  161.7430 N.3     1  UNL1       -0.2726
      3 C         141.6531  145.1806  161.9525 C.3     1  UNL1        0.0721
      4 C         140.8393  145.4662  163.1798 C.3     1  UNL1        0.0190
      5 C         140.3536  144.1575  163.7289 C.3     1  UNL1        0.0201
      6 C         139.6089  144.7422  164.8923 C.3     1  UNL1        0.0061
      7 C         139.6261  143.2570  164.6828 C.3     1  UNL1        0.0237
      8 C         140.8672  143.0631  162.8409 C.3     1  UNL1        0.0724
      9 C         139.2161  141.8796  165.1125 C.ar    1  UNL1       -0.0225
     10 C         139.6638  141.3437  166.4400 C.ar    1  UNL1       -0.0043
     11 C         139.2538  139.9664  166.8698 C.ar    1  UNL1        0.0035
     12 C         138.3959  139.1249  165.9720 C.ar    1  UNL1        0.0714
     13 C         137.9481  139.6608  164.6445 C.ar    1  UNL1        0.0035
     14 C         138.3582  141.0382  164.2147 C.ar    1  UNL1       -0.0043
     15 C         137.9858  137.7476  166.4018 C.3     1  UNL1        0.4186
     16 F         137.5757  136.3701  166.8315 F       1  UNL1       -0.1659
     17 F         137.1055  138.3404  167.4617 F       1  UNL1       -0.1659
     18 F         138.8662  137.1548  165.3418 F       1  UNL1       -0.1659
     19 C         141.9087  141.6012  160.2241 C.3     1  UNL1        0.0294
     20 C         142.9071  140.5813  159.7626 C.3     1  UNL1        0.0666
     21 S         143.5731  139.6793  160.7590 S.3     1  UNL1       -0.0756
     22 C         141.7509  139.3984  163.4516 C.3     1  UNL1        0.1340
     23 N         143.0893  140.0692  163.3588 N.ar    1  UNL1       -0.2884
     24 C         143.9269  140.1983  162.1212 C.ar    1  UNL1        0.1932
     25 N         145.1805  140.9374  162.4848 N.ar    1  UNL1       -0.1221
     26 N         145.1177  141.2652  163.9472 N.ar    1  UNL1       -0.1282
     27 C         143.8253  140.7286  164.4874 C.ar    1  UNL1        0.1683
     28 C         143.3519  140.8330  165.9070 C.ar    1  UNL1        0.0551
     29 C         143.2138  142.1790  166.5544 C.ar    1  UNL1        0.0069
     30 C         142.7404  142.2835  167.9739 C.ar    1  UNL1        0.0298
     31 C         142.4052  141.0418  168.7460 C.ar    1  UNL1        0.1492
     32 N         142.5434  139.6958  168.0986 N.ar    1  UNL1       -0.2334
     33 C         143.0168  139.5914  166.6790 C.ar    1  UNL1        0.1026
     34 C         141.9319  141.1463  170.1655 C.1     1  UNL1        0.1198
     35 N         141.4586  141.2507  171.5850 N.1     1  UNL1       -0.1893
@<TRIPOS>BOND
     1    22    23    1
     2    23    24   ar
     3    24    21    1
     4    21    20    1
     5    20    19    1
     6    19     1    1
     7     1     2    1
     8     2     3    1
     9     3     4    1
    10     5     4    1
    11     5     6    1
    12     6     7    1
    13     7     9    1
    14     9    10   ar
    15    10    11   ar
    16    11    12   ar
    17    12    15    1
    18    15    16    1
    19    15    17    1
    20    15    18    1
    21    12    13   ar
    22    13    14   ar
    23     5     8    1
    24    24    25   ar
    25    25    26   ar
    26    26    27   ar
    27    27    28    1
    28    28    29   ar
    29    29    30   ar
    30    30    31   ar
    31    31    34    1
    32    34    35    3
    33    31    32   ar
    34    32    33   ar
    35    27    23   ar
    36    33    28   ar
    37     8     2    1
    38     7     5    1
    39    14     9   ar
@<TRIPOS>MOLECULE
*****
 35 39 0 0 0
SMALL
GASTEIGER

@<TRIPOS>ATOM
      1 C         139.4929  141.4961  158.5423 C.3     1  UNL1        0.0730
      2 N         139.9941  142.5832  159.4461 N.3     1  UNL1       -0.2726
      3 C         139.8435  144.0582  159.2187 C.3     1  UNL1        0.0721
      4 C         140.4903  144.7728  160.3681 C.3     1  UNL1        0.0190
      5 C         141.0407  143.7395  161.3058 C.3     1  UNL1        0.0201
      6 C         141.5967  144.7126  162.3027 C.3     1  UNL1        0.0061
      7 C         141.7473  143.2376  162.5301 C.3     1  UNL1        0.0237
      8 C         140.7340  142.3862  160.7360 C.3     1  UNL1        0.0724
      9 C         142.2423  142.0963  163.3682 C.ar    1  UNL1       -0.0225
     10 C         143.1057  142.3640  164.5652 C.ar    1  UNL1       -0.0043
     11 C         143.6006  141.2227  165.4033 C.ar    1  UNL1        0.0035
     12 C         143.2322  139.8137  165.0443 C.ar    1  UNL1        0.0714
     13 C         142.3688  139.5459  163.8472 C.ar    1  UNL1        0.0035
     14 C         141.8739  140.6873  163.0092 C.ar    1  UNL1       -0.0043
     15 C         143.7271  138.6723  165.8824 C.3     1  UNL1        0.4186
     16 F         144.2221  137.5310  166.7205 F       1  UNL1       -0.1659
     17 F         142.4035  138.6147  166.5856 F       1  UNL1       -0.1659
     18 F         145.0508  138.7299  165.1791 F       1  UNL1       -0.1659
     19 C         138.3185  140.6594  158.9554 C.3     1  UNL1        0.0294
     20 C         138.4849  139.5978  160.0021 C.3     1  UNL1        0.0666
     21 S         137.5919  139.5864  161.2072 S.3     1  UNL1       -0.0756
     22 C         137.8813  141.5956  163.7624 C.3     1  UNL1        0.1340
     23 N         138.2846  140.1513  163.7264 N.ar    1  UNL1       -0.2884
     24 C         138.1516  139.2278  162.5519 C.ar    1  UNL1        0.1932
     25 N         138.6765  137.8826  162.9581 N.ar    1  UNL1       -0.1221
     26 N         139.1340  137.9748  164.3837 N.ar    1  UNL1       -0.1282
     27 C         138.8918  139.3769  164.8586 C.ar    1  UNL1        0.1683
     28 C         139.2022  139.9108  166.2255 C.ar    1  UNL1        0.0551
     29 C         140.1111  141.0940  166.3800 C.ar    1  UNL1        0.0069
     30 C         140.4215  141.6280  167.7469 C.ar    1  UNL1        0.0298
     31 C         139.8230  140.9786  168.9594 C.ar    1  UNL1        0.1492
     32 N         138.9141  139.7954  168.8050 N.ar    1  UNL1       -0.2334
     33 C         138.6037  139.2615  167.4380 C.ar    1  UNL1        0.1026
     34 C         140.1334  141.5125  170.3264 C.1     1  UNL1        0.1198
     35 N         140.4438  142.0465  171.6933 N.1     1  UNL1       -0.1893
@<TRIPOS>BOND
     1    22    23    1
     2    23    24   ar
     3    24    21    1
     4    21    20    1
     5    20    19    1
     6    19     1    1
     7     1     2    1
     8     2     3    1
     9     3     4    1
    10     5     4    1
    11     5     6    1
    12     6     7    1
    13     7     9    1
    14     9    10   ar
    15    10    11   ar
    16    11    12   ar
    17    12    15    1
    18    15    16    1
    19    15    17    1
    20    15    18    1
    21    12    13   ar
    22    13    14   ar
    23     5     8    1
    24    24    25   ar
    25    25    26   ar
    26    26    27   ar
    27    27    28    1
    28    28    29   ar
    29    29    30   ar
    30    30    31   ar
    31    31    34    1
    32    34    35    3
    33    31    32   ar
    34    32    33   ar
    35    27    23   ar
    36    33    28   ar
    37     8     2    1
    38     7     5    1
    39    14     9   ar
@<TRIPOS>MOLECULE
*****
 35 39 0 0 0
SMALL
GASTEIGER

@<TRIPOS>ATOM
      1 C         142.8981  137.7729  159.8528 C.3     1  UNL1        0.0730
      2 N         141.5079  138.3012  159.6573 N.3     1  UNL1       -0.2726
      3 C         140.8510  138.5881  158.3396 C.3     1  UNL1        0.0721
      4 C         139.4677  139.0996  158.6131 C.3     1  UNL1        0.0190
      5 C         139.2696  139.1288  160.0996 C.3     1  UNL1        0.0201
      6 C         137.8664  139.6573  160.0606 C.3     1  UNL1        0.0061
      7 C         138.5233  139.3704  161.3782 C.3     1  UNL1        0.0237
      8 C         140.5306  138.6354  160.7450 C.3     1  UNL1        0.0724
      9 C         138.4717  139.3442  162.8770 C.ar    1  UNL1       -0.0225
     10 C         138.7581  138.0702  163.6152 C.ar    1  UNL1       -0.0043
     11 C         138.7065  138.0440  165.1141 C.ar    1  UNL1        0.0035
     12 C         138.3684  139.2918  165.8748 C.ar    1  UNL1        0.0714
     13 C         138.0820  140.5658  165.1366 C.ar    1  UNL1        0.0035
     14 C         138.1336  140.5920  163.6377 C.ar    1  UNL1       -0.0043
     15 C         138.3168  139.2656  167.3736 C.3     1  UNL1        0.4186
     16 F         138.2652  139.2394  168.8726 F       1  UNL1       -0.1659
     17 F         139.6626  139.9255  167.4315 F       1  UNL1       -0.1659
     18 F         136.9710  138.6057  167.3158 F       1  UNL1       -0.1659
     19 C         143.6427  138.0719  161.1202 C.3     1  UNL1        0.0294
     20 C         144.4429  139.3350  161.2399 C.3     1  UNL1        0.0666
     21 S         143.7547  140.6667  161.1867 S.3     1  UNL1       -0.0756
     22 C         141.8290  140.0834  163.7560 C.3     1  UNL1        0.1340
     23 N         142.7703  141.2414  163.6045 N.ar    1  UNL1       -0.2884
     24 C         143.6554  141.5095  162.4236 C.ar    1  UNL1        0.1932
     25 N         144.4239  142.7685  162.6965 N.ar    1  UNL1       -0.1221
     26 N         144.0137  143.2784  164.0463 N.ar    1  UNL1       -0.1282
     27 C         142.9917  142.3347  164.6075 C.ar    1  UNL1        0.1683
     28 C         142.3108  142.4618  165.9379 C.ar    1  UNL1        0.0551
     29 C         140.8701  142.8736  166.0068 C.ar    1  UNL1        0.0069
     30 C         140.1891  143.0008  167.3372 C.ar    1  UNL1        0.0298
     31 C         140.9490  142.7162  168.5989 C.ar    1  UNL1        0.1492
     32 N         142.3897  142.3044  168.5300 N.ar    1  UNL1       -0.2334
     33 C         143.0706  142.1772  167.1995 C.ar    1  UNL1        0.1026
     34 C         140.2681  142.8433  169.9293 C.1     1  UNL1        0.1198
     35 N         139.5871  142.9705  171.2598 N.1     1  UNL1       -0.1893
@<TRIPOS>BOND
     1    22    23    1
     2    23    24   ar
     3    24    21    1
     4    21    20    1
     5    20    19    1
     6    19     1    1
     7     1     2    1
     8     2     3    1
     9     3     4    1
    10     5     4    1
    11     5     6    1
    12     6     7    1
    13     7     9    1
    14     9    10   ar
    15    10    11   ar
    16    11    12   ar
    17    12    15    1
    18    15    16    1
    19    15    17    1
    20    15    18    1
    21    12    13   ar
    22    13    14   ar
    23     5     8    1
    24    24    25   ar
    25    25    26   ar
    26    26    27   ar
    27    27    28    1
    28    28    29   ar
    29    29    30   ar
    30    30    31   ar
    31    31    34    1
    32    34    35    3
    33    31    32   ar
    34    32    33   ar
    35    27    23   ar
    36    33    28   ar
    37     8     2    1
    38     7     5    1
    39    14     9   ar
@<TRIPOS>MOLECULE
*****
 35 39 0 0 0
SMALL
GASTEIGER

@<TRIPOS>ATOM
      1 C         141.7846  143.6302  160.1198 C.3     1  UNL1        0.0730
      2 N         142.0237  142.1613  159.9322 N.3     1  UNL1       -0.2726
      3 C         142.8125  141.5310  158.8229 C.3     1  UNL1        0.0721
      4 C         142.7922  140.0450  159.0261 C.3     1  UNL1        0.0190
      5 C         141.9909  139.7568  160.2610 C.3     1  UNL1        0.0201
      6 C         142.1449  138.2659  160.2035 C.3     1  UNL1        0.0061
      7 C         141.3561  138.8962  161.3128 C.3     1  UNL1        0.0237
      8 C         141.5159  141.0648  160.8210 C.3     1  UNL1        0.0724
      9 C         140.5342  138.7631  162.5605 C.ar    1  UNL1       -0.0225
     10 C         140.9068  137.7472  163.5993 C.ar    1  UNL1       -0.0043
     11 C         140.0849  137.6142  164.8470 C.ar    1  UNL1        0.0035
     12 C         138.8905  138.4971  165.0559 C.ar    1  UNL1        0.0714
     13 C         138.5179  139.5131  164.0171 C.ar    1  UNL1        0.0035
     14 C         139.3398  139.6461  162.7694 C.ar    1  UNL1       -0.0043
     15 C         138.0686  138.3641  166.3036 C.3     1  UNL1        0.4186
     16 F         137.2466  138.2311  167.5513 F       1  UNL1       -0.1659
     17 F         138.1215  139.8507  166.4969 F       1  UNL1       -0.1659
     18 F         138.0157  136.8776  166.1103 F       1  UNL1       -0.1659
     19 C         140.3829  144.1628  160.1597 C.3     1  UNL1        0.0294
     20 C         140.1172  145.5353  160.7035 C.3     1  UNL1        0.0666
     21 S         140.2678  145.8024  162.1719 S.3     1  UNL1       -0.0756
     22 C         142.3820  144.2493  164.1129 C.3     1  UNL1        0.1340
     23 N         140.9008  144.0187  164.0594 N.ar    1  UNL1       -0.2884
     24 C         139.9290  144.7326  163.1672 C.ar    1  UNL1        0.1932
     25 N         138.5589  144.1889  163.4452 N.ar    1  UNL1       -0.1221
     26 N         138.6839  143.1389  164.5091 N.ar    1  UNL1       -0.1282
     27 C         140.1313  143.0337  164.8888 C.ar    1  UNL1        0.1683
     28 C         140.7079  142.1064  165.9173 C.ar    1  UNL1        0.0551
     29 C         141.6267  140.9980  165.4966 C.ar    1  UNL1        0.0069
     30 C         142.2033  140.0707  166.5250 C.ar    1  UNL1        0.0298
     31 C         141.8610  140.2520  167.9742 C.ar    1  UNL1        0.1492
     32 N         140.9421  141.3604  168.3949 N.ar    1  UNL1       -0.2334
     33 C         140.3655  142.2877  167.3663 C.ar    1  UNL1        0.1026
     34 C         142.4376  139.3247  169.0026 C.1     1  UNL1        0.1198
     35 N         143.0142  138.3974  170.0310 N.1     1  UNL1       -0.1893
@<TRIPOS>BOND
     1    22    23    1
     2    23    24   ar
     3    24    21    1
     4    21    20    1
     5    20    19    1
     6    19     1    1
     7     1     2    1
     8     2     3    1
     9     3     4    1
    10     5     4    1
    11     5     6    1
    12     6     7    1
    13     7     9    1
    14     9    10   ar
    15    10    11   ar
    16    11    12   ar
    17    12    15    1
    18    15    16    1
    19    15    17    1
    20    15    18    1
    21    12    13   ar
    22    13    14   ar
    23     5     8    1
    24    24    25   ar
    25    25    26   ar
    26    26    27   ar
    27    27    28    1
    28    28    29   ar
    29    29    30   ar
    30    30    31   ar
    31    31    34    1
    32    34    35    3
    33    31    32   ar
    34    32    33   ar
    35    27    23   ar
    36    33    28   ar
    37     8     2    1
    38     7     5    1
    39    14     9   ar
@<TRIPOS>MOLECULE
*****
 35 39 0 0 0
SMALL
GASTEIGER

@<TRIPOS>ATOM
      1 C         140.7872  142.7748  158.9091 C.3     1  UNL1        0.0730
      2 N         140.5076  143.5961  160.1327 N.3     1  UNL1       -0.2726
      3 C         140.6283  145.0874  160.2401 C.3     1  UNL1        0.0721
      4 C         140.2535  145.4833  161.6376 C.3     1  UNL1        0.0190
      5 C         139.9013  144.2367  162.3938 C.3     1  UNL1        0.0201
      6 C         139.5864  144.9232  163.6898 C.3     1  UNL1        0.0061
      7 C         139.4657  143.4319  163.5824 C.3     1  UNL1        0.0237
      8 C         140.0583  143.0703  161.4638 C.3     1  UNL1        0.0724
      9 C         139.1446  142.1063  164.2066 C.ar    1  UNL1       -0.0225
     10 C         138.4025  141.0669  163.4198 C.ar    1  UNL1       -0.0043
     11 C         138.0814  139.7413  164.0440 C.ar    1  UNL1        0.0035
     12 C         138.5024  139.4551  165.4550 C.ar    1  UNL1        0.0714
     13 C         139.2445  140.4945  166.2417 C.ar    1  UNL1        0.0035
     14 C         139.5656  141.8201  165.6176 C.ar    1  UNL1       -0.0043
     15 C         138.1813  138.1295  166.0792 C.3     1  UNL1        0.4186
     16 F         137.8602  136.8038  166.7034 F       1  UNL1       -0.1659
     17 F         139.0872  137.4477  165.0971 F       1  UNL1       -0.1659
     18 F         137.2754  138.8114  167.0612 F       1  UNL1       -0.1659
     19 C         142.0773  142.0185  158.7921 C.3     1  UNL1        0.0294
     20 C         143.3790  142.7612  158.7281 C.3     1  UNL1        0.0666
     21 S         144.3971  142.5853  159.8155 S.3     1  UNL1       -0.0756
     22 C         144.0970  140.2587  162.0841 C.3     1  UNL1        0.1340
     23 N         143.8698  141.7269  162.2914 N.ar    1  UNL1       -0.2884
     24 C         144.0078  142.7963  161.2487 C.ar    1  UNL1        0.1932
     25 N         143.6881  144.1137  161.8906 N.ar    1  UNL1       -0.1221
     26 N         143.3525  143.8586  163.3301 N.ar    1  UNL1       -0.1282
     27 C         143.4648  142.3834  163.5779 C.ar    1  UNL1        0.1683
     28 C         143.2158  141.6871  164.8830 C.ar    1  UNL1        0.0551
     29 C         143.0034  140.2025  164.9124 C.ar    1  UNL1        0.0069
     30 C         142.7544  139.5062  166.2174 C.ar    1  UNL1        0.0298
     31 C         142.7179  140.2946  167.4931 C.ar    1  UNL1        0.1492
     32 N         142.9303  141.7791  167.4637 N.ar    1  UNL1       -0.2334
     33 C         143.1793  142.4754  166.1586 C.ar    1  UNL1        0.1026
     34 C         142.4689  139.5982  168.7981 C.1     1  UNL1        0.1198
     35 N         142.2199  138.9019  170.1032 N.1     1  UNL1       -0.1893
@<TRIPOS>BOND
     1    22    23    1
     2    23    24   ar
     3    24    21    1
     4    21    20    1
     5    20    19    1
     6    19     1    1
     7     1     2    1
     8     2     3    1
     9     3     4    1
    10     5     4    1
    11     5     6    1
    12     6     7    1
    13     7     9    1
    14     9    10   ar
    15    10    11   ar
    16    11    12   ar
    17    12    15    1
    18    15    16    1
    19    15    17    1
    20    15    18    1
    21    12    13   ar
    22    13    14   ar
    23     5     8    1
    24    24    25   ar
    25    25    26   ar
    26    26    27   ar
    27    27    28    1
    28    28    29   ar
    29    29    30   ar
    30    30    31   ar
    31    31    34    1
    32    34    35    3
    33    31    32   ar
    34    32    33   ar
    35    27    23   ar
    36    33    28   ar
    37     8     2    1
    38     7     5    1
    39    14     9   ar
@<TRIPOS>MOLECULE
*****
 35 39 0 0 0
SMALL
GASTEIGER

@<TRIPOS>ATOM
      1 C         137.7258  143.0867  162.5324 C.3     1  UNL1        0.0730
      2 N         137.9855  141.6117  162.6145 N.3     1  UNL1       -0.2726
      3 C         137.6615  140.5992  161.5563 C.3     1  UNL1        0.0721
      4 C         138.0906  139.2519  162.0570 C.3     1  UNL1        0.0190
      5 C         138.6798  139.4317  163.4247 C.3     1  UNL1        0.0201
      6 C         138.9996  137.9836  163.6493 C.3     1  UNL1        0.0061
      7 C         139.3236  138.9960  164.7075 C.3     1  UNL1        0.0237
      8 C         138.6148  140.8902  163.7692 C.3     1  UNL1        0.0724
      9 C         139.8824  139.3291  166.0591 C.ar    1  UNL1       -0.0225
     10 C         138.9577  139.5493  167.2195 C.ar    1  UNL1       -0.0043
     11 C         139.5165  139.8823  168.5711 C.ar    1  UNL1        0.0035
     12 C         141.0000  139.9952  168.7623 C.ar    1  UNL1        0.0714
     13 C         141.9247  139.7750  167.6019 C.ar    1  UNL1        0.0035
     14 C         141.3659  139.4420  166.2503 C.ar    1  UNL1       -0.0043
     15 C         141.5588  140.3283  170.1138 C.3     1  UNL1        0.4186
     16 F         142.1176  140.6614  171.4655 F       1  UNL1       -0.1659
     17 F         140.2763  139.8850  170.7533 F       1  UNL1       -0.1659
     18 F         142.8412  140.7715  169.4744 F       1  UNL1       -0.1659
     19 C         138.3103  144.0095  163.5604 C.3     1  UNL1        0.0294
     20 C         139.2404  145.1085  163.1396 C.3     1  UNL1        0.0666
     21 S         140.7191  144.8619  163.0904 S.3     1  UNL1       -0.0756
     22 C         140.7971  143.2372  160.2613 C.3     1  UNL1        0.1340
     23 N         141.2768  142.7236  161.5865 N.ar    1  UNL1       -0.2884
     24 C         141.2409  143.4704  162.8869 C.ar    1  UNL1        0.1932
     25 N         141.8185  142.5814  163.9481 N.ar    1  UNL1       -0.1221
     26 N         142.2113  141.2852  163.3036 N.ar    1  UNL1       -0.1282
     27 C         141.8766  141.3730  161.8440 C.ar    1  UNL1        0.1683
     28 C         142.1020  140.2989  160.8215 C.ar    1  UNL1        0.0551
     29 C         140.9340  139.6879  160.1056 C.ar    1  UNL1        0.0069
     30 C         141.1594  138.6138  159.0831 C.ar    1  UNL1        0.0298
     31 C         142.5529  138.1507  158.7766 C.ar    1  UNL1        0.1492
     32 N         143.7209  138.7617  159.4924 N.ar    1  UNL1       -0.2334
     33 C         143.4954  139.8359  160.5149 C.ar    1  UNL1        0.1026
     34 C         142.7783  137.0766  157.7541 C.1     1  UNL1        0.1198
     35 N         143.0037  136.0025  156.7316 N.1     1  UNL1       -0.1893
@<TRIPOS>BOND
     1    22    23    1
     2    23    24   ar
     3    24    21    1
     4    21    20    1
     5    20    19    1
     6    19     1    1
     7     1     2    1
     8     2     3    1
     9     3     4    1
    10     5     4    1
    11     5     6    1
    12     6     7    1
    13     7     9    1
    14     9    10   ar
    15    10    11   ar
    16    11    12   ar
    17    12    15    1
    18    15    16    1
    19    15    17    1
    20    15    18    1
    21    12    13   ar
    22    13    14   ar
    23     5     8    1
    24    24    25   ar
    25    25    26   ar
    26    26    27   ar
    27    27    28    1
    28    28    29   ar
    29    29    30   ar
    30    30    31   ar
    31    31    34    1
    32    34    35    3
    33    31    32   ar
    34    32    33   ar
    35    27    23   ar
    36    33    28   ar
    37     8     2    1
    38     7     5    1
    39    14     9   ar
@<TRIPOS>MOLECULE
*****
 35 39 0 0 0
SMALL
GASTEIGER

@<TRIPOS>ATOM
      1 C         142.0644  140.4628  158.8690 C.3     1  UNL1        0.0730
      2 N         142.9509  141.3293  159.7136 N.3     1  UNL1       -0.2726
      3 C         144.4308  141.5065  159.5443 C.3     1  UNL1        0.0721
      4 C         144.9077  142.4574  160.6018 C.3     1  UNL1        0.0190
      5 C         143.7226  142.8679  161.4246 C.3     1  UNL1        0.0201
      6 C         144.4803  143.7726  162.3506 C.3     1  UNL1        0.0061
      7 C         143.0005  143.5954  162.5198 C.3     1  UNL1        0.0237
      8 C         142.5132  142.1707  160.8757 C.3     1  UNL1        0.0724
      9 C         141.7292  143.9131  163.2498 C.ar    1  UNL1       -0.0225
     10 C         140.7472  144.8813  162.6596 C.ar    1  UNL1       -0.0043
     11 C         139.4760  145.1989  163.3896 C.ar    1  UNL1        0.0035
     12 C         139.1867  144.5484  164.7098 C.ar    1  UNL1        0.0714
     13 C         140.1686  143.5802  165.3001 C.ar    1  UNL1        0.0035
     14 C         141.4399  143.2626  164.5701 C.ar    1  UNL1       -0.0043
     15 C         137.9154  144.8661  165.4398 C.3     1  UNL1        0.4186
     16 F         136.6441  145.1838  166.1699 F       1  UNL1       -0.1659
     17 F         137.1217  144.2524  164.3248 F       1  UNL1       -0.1659
     18 F         138.7091  145.4798  166.5549 F       1  UNL1       -0.1659
     19 C         141.6200  139.1235  159.3776 C.3     1  UNL1        0.0294
     20 C         142.6345  138.0585  159.6721 C.3     1  UNL1        0.0666
     21 S         143.3707  138.0649  160.9789 S.3     1  UNL1       -0.0756
     22 C         144.0587  139.7897  163.6624 C.3     1  UNL1        0.1340
     23 N         142.9238  138.8219  163.5032 N.ar    1  UNL1       -0.2884
     24 C         142.6076  138.0291  162.2698 C.ar    1  UNL1        0.1932
     25 N         141.3942  137.1942  162.5538 N.ar    1  UNL1       -0.1221
     26 N         140.9604  137.4711  163.9628 N.ar    1  UNL1       -0.1282
     27 C         141.9058  138.4771  164.5496 C.ar    1  UNL1        0.1683
     28 C         141.8440  139.0394  165.9389 C.ar    1  UNL1        0.0551
     29 C         140.6513  139.8394  166.3718 C.ar    1  UNL1        0.0069
     30 C         140.5895  140.4017  167.7610 C.ar    1  UNL1        0.0298
     31 C         141.7205  140.1640  168.7173 C.ar    1  UNL1        0.1492
     32 N         142.9132  139.3640  168.2844 N.ar    1  UNL1       -0.2334
     33 C         142.9749  138.8017  166.8951 C.ar    1  UNL1        0.1026
     34 C         141.6587  140.7263  170.1066 C.1     1  UNL1        0.1198
     35 N         141.5969  141.2886  171.4958 N.1     1  UNL1       -0.1893
@<TRIPOS>BOND
     1    22    23    1
     2    23    24   ar
     3    24    21    1
     4    21    20    1
     5    20    19    1
     6    19     1    1
     7     1     2    1
     8     2     3    1
     9     3     4    1
    10     5     4    1
    11     5     6    1
    12     6     7    1
    13     7     9    1
    14     9    10   ar
    15    10    11   ar
    16    11    12   ar
    17    12    15    1
    18    15    16    1
    19    15    17    1
    20    15    18    1
    21    12    13   ar
    22    13    14   ar
    23     5     8    1
    24    24    25   ar
    25    25    26   ar
    26    26    27   ar
    27    27    28    1
    28    28    29   ar
    29    29    30   ar
    30    30    31   ar
    31    31    34    1
    32    34    35    3
    33    31    32   ar
    34    32    33   ar
    35    27    23   ar
    36    33    28   ar
    37     8     2    1
    38     7     5    1
    39    14     9   ar
@<TRIPOS>MOLECULE
*****
 35 39 0 0 0
SMALL
GASTEIGER

@<TRIPOS>ATOM
      1 C         143.6649  143.5421  162.1346 C.3     1  UNL1        0.0730
      2 N         142.4089  143.8404  162.8985 N.3     1  UNL1       -0.2726
      3 C         141.3138  144.7699  162.4663 C.3     1  UNL1        0.0721
      4 C         140.2557  144.7655  163.5295 C.3     1  UNL1        0.0190
      5 C         140.6968  143.8333  164.6187 C.3     1  UNL1        0.0201
      6 C         139.4938  144.0326  165.4923 C.3     1  UNL1        0.0061
      7 C         140.5889  143.1031  165.9245 C.3     1  UNL1        0.0237
      8 C         142.0276  143.2616  164.2288 C.3     1  UNL1        0.0724
      9 C         141.1589  142.1448  166.9279 C.ar    1  UNL1       -0.0225
     10 C         141.4219  142.5987  168.3332 C.ar    1  UNL1       -0.0043
     11 C         141.9919  141.6404  169.3366 C.ar    1  UNL1        0.0035
     12 C         142.2989  140.2283  168.9347 C.ar    1  UNL1        0.0714
     13 C         142.0359  139.7744  167.5294 C.ar    1  UNL1        0.0035
     14 C         141.4659  140.7326  166.5260 C.ar    1  UNL1       -0.0043
     15 C         142.8688  139.2700  169.9381 C.3     1  UNL1        0.4186
     16 F         143.4389  138.3117  170.9416 F       1  UNL1       -0.1659
     17 F         143.0040  138.2288  168.8669 F       1  UNL1       -0.1659
     18 F         142.7336  140.3112  171.0093 F       1  UNL1       -0.1659
     19 C         143.6054  143.3136  160.6533 C.3     1  UNL1        0.0294
     20 C         144.3403  142.1574  160.0425 C.3     1  UNL1        0.0666
     21 S         143.9086  140.7523  160.3413 S.3     1  UNL1       -0.0756
     22 C         143.0937  139.7767  163.3469 C.3     1  UNL1        0.1340
     23 N         142.1431  140.0354  162.2158 N.ar    1  UNL1       -0.2884
     24 C         142.5176  140.4838  160.8343 C.ar    1  UNL1        0.1932
     25 N         141.2570  140.6167  160.0323 N.ar    1  UNL1       -0.1221
     26 N         140.1033  140.2504  160.9181 N.ar    1  UNL1       -0.1282
     27 C         140.6508  139.8911  162.2677 C.ar    1  UNL1        0.1683
     28 C         139.8473  139.4628  163.4597 C.ar    1  UNL1        0.0551
     29 C         138.8709  140.4132  164.0868 C.ar    1  UNL1        0.0069
     30 C         138.0674  139.9849  165.2788 C.ar    1  UNL1        0.0298
     31 C         138.2404  138.6060  165.8437 C.ar    1  UNL1        0.1492
     32 N         139.2168  137.6556  165.2166 N.ar    1  UNL1       -0.2334
     33 C         140.0203  138.0841  164.0245 C.ar    1  UNL1        0.1026
     34 C         137.4369  138.1777  167.0357 C.1     1  UNL1        0.1198
     35 N         136.6333  137.7494  168.2277 N.1     1  UNL1       -0.1893
@<TRIPOS>BOND
     1    22    23    1
     2    23    24   ar
     3    24    21    1
     4    21    20    1
     5    20    19    1
     6    19     1    1
     7     1     2    1
     8     2     3    1
     9     3     4    1
    10     5     4    1
    11     5     6    1
    12     6     7    1
    13     7     9    1
    14     9    10   ar
    15    10    11   ar
    16    11    12   ar
    17    12    15    1
    18    15    16    1
    19    15    17    1
    20    15    18    1
    21    12    13   ar
    22    13    14   ar
    23     5     8    1
    24    24    25   ar
    25    25    26   ar
    26    26    27   ar
    27    27    28    1
    28    28    29   ar
    29    29    30   ar
    30    30    31   ar
    31    31    34    1
    32    34    35    3
    33    31    32   ar
    34    32    33   ar
    35    27    23   ar
    36    33    28   ar
    37     8     2    1
    38     7     5    1
    39    14     9   ar
@<TRIPOS>MOLECULE
*****
 35 39 0 0 0
SMALL
GASTEIGER

@<TRIPOS>ATOM
      1 C         141.6026  139.9898  158.8283 C.3     1  UNL1        0.0730
      2 N         142.5640  140.8807  159.5577 N.3     1  UNL1       -0.2726
      3 C         144.0316  141.0117  159.2764 C.3     1  UNL1        0.0721
      4 C         144.6011  142.0090  160.2413 C.3     1  UNL1        0.0190
      5 C         143.4856  142.4943  161.1189 C.3     1  UNL1        0.0201
      6 C         144.3251  143.4310  161.9361 C.3     1  UNL1        0.0061
      7 C         142.8576  143.3000  162.2173 C.3     1  UNL1        0.0237
      8 C         142.2266  141.7969  160.6964 C.3     1  UNL1        0.0724
      9 C         141.6477  143.6894  163.0138 C.ar    1  UNL1       -0.0225
     10 C         140.7451  144.7816  162.5212 C.ar    1  UNL1       -0.0043
     11 C         139.5353  145.1711  163.3177 C.ar    1  UNL1        0.0035
     12 C         139.2279  144.4684  164.6068 C.ar    1  UNL1        0.0714
     13 C         140.1305  143.3762  165.0994 C.ar    1  UNL1        0.0035
     14 C         141.3404  142.9868  164.3029 C.ar    1  UNL1       -0.0043
     15 C         138.0180  144.8579  165.4033 C.3     1  UNL1        0.4186
     16 F         136.8080  145.2474  166.1999 F       1  UNL1       -0.1659
     17 F         138.9033  145.4624  166.4525 F       1  UNL1       -0.1659
     18 F         137.1327  144.2534  164.3542 F       1  UNL1       -0.1659
     19 C         140.9152  138.8729  159.5562 C.3     1  UNL1        0.0294
     20 C         139.5917  139.1128  160.2202 C.3     1  UNL1        0.0666
     21 S         139.0880  138.1534  161.2573 S.3     1  UNL1       -0.0756
     22 C         138.4872  140.2204  163.7101 C.3     1  UNL1        0.1340
     23 N         139.4459  139.0672  163.7436 N.ar    1  UNL1       -0.2884
     24 C         139.7220  138.1171  162.6162 C.ar    1  UNL1        0.1932
     25 N         140.7435  137.1243  163.0863 N.ar    1  UNL1       -0.1221
     26 N         141.0987  137.4608  164.5043 N.ar    1  UNL1       -0.1282
     27 C         140.2967  138.6616  164.9106 C.ar    1  UNL1        0.1683
     28 C         140.3383  139.3380  166.2488 C.ar    1  UNL1        0.0551
     29 C         141.5618  140.0984  166.6671 C.ar    1  UNL1        0.0069
     30 C         141.6033  140.7748  168.0053 C.ar    1  UNL1        0.0298
     31 C         140.4214  140.6908  168.9251 C.ar    1  UNL1        0.1492
     32 N         139.1979  139.9304  168.5068 N.ar    1  UNL1       -0.2334
     33 C         139.1564  139.2540  167.1685 C.ar    1  UNL1        0.1026
     34 C         140.4630  141.3672  170.2633 C.1     1  UNL1        0.1198
     35 N         140.5045  142.0436  171.6015 N.1     1  UNL1       -0.1893
@<TRIPOS>BOND
     1    22    23    1
     2    23    24   ar
     3    24    21    1
     4    21    20    1
     5    20    19    1
     6    19     1    1
     7     1     2    1
     8     2     3    1
     9     3     4    1
    10     5     4    1
    11     5     6    1
    12     6     7    1
    13     7     9    1
    14     9    10   ar
    15    10    11   ar
    16    11    12   ar
    17    12    15    1
    18    15    16    1
    19    15    17    1
    20    15    18    1
    21    12    13   ar
    22    13    14   ar
    23     5     8    1
    24    24    25   ar
    25    25    26   ar
    26    26    27   ar
    27    27    28    1
    28    28    29   ar
    29    29    30   ar
    30    30    31   ar
    31    31    34    1
    32    34    35    3
    33    31    32   ar
    34    32    33   ar
    35    27    23   ar
    36    33    28   ar
    37     8     2    1
    38     7     5    1
    39    14     9   ar
