@<TRIPOS>MOLECULE
*****
 26 28 0 0 0
SMALL
GASTEIGER

@<TRIPOS>ATOM
      1 C         138.5038  139.0893  165.8999 C.ar    1  UNL1       -0.0001
      2 C         138.8404  137.7660  165.2792 C.ar    1  UNL1       -0.0003
      3 C         138.9239  137.6370  163.7871 C.ar    1  UNL1       -0.0031
      4 C         138.6706  138.8313  162.9157 C.ar    1  UNL1       -0.0071
      5 C         138.3339  140.1546  163.5364 C.ar    1  UNL1       -0.0071
      6 C         138.2505  140.2837  165.0285 C.ar    1  UNL1       -0.0031
      7 C         138.1366  141.1487  162.4304 C.3     1  UNL1        0.1222
      8 N         138.3514  140.4396  161.1262 N.3     1  UNL1       -0.1466
      9 C         138.6814  139.0074  161.4261 C.3     1  UNL1        0.1222
     10 S         138.2534  141.0547  159.7616 S.O2    1  UNL1        0.0639
     11 O         138.1451  139.6878  159.1532 O.2     1  UNL1       -0.1528
     12 O         138.3616  142.4214  160.3699 O.2     1  UNL1       -0.1528
     13 C         138.1553  141.6697  158.3970 C.ar    1  UNL1        0.1222
     14 C         137.2760  141.0455  157.3544 C.ar    1  UNL1        0.0199
     15 C         137.1780  141.6606  155.9898 C.ar    1  UNL1        0.0014
     16 C         137.9593  142.9000  155.6679 C.ar    1  UNL1        0.0001
     17 C         138.8386  143.5242  156.7106 C.ar    1  UNL1        0.0014
     18 C         138.9366  142.9091  158.0752 C.ar    1  UNL1        0.0199
     19 C         139.4606  140.0015  168.1365 C.2     1  UNL1        0.0598
     20 C         138.4203  139.2183  167.3920 C.2     1  UNL1        0.0047
     21 O         138.0562  139.9756  170.3221 O.2     1  UNL1       -0.2681
     22 C         139.3772  140.1306  169.6286 C.2     1  UNL1        0.2679
     23 N         140.6148  140.4145  170.4272 N.am    1  UNL1       -0.1934
     24 O         140.5314  140.5435  171.9193 O.3     1  UNL1       -0.2949
     25 H         141.4819  140.5162  169.9720 H       1  UNL1        0.1825
     26 H         139.6128  140.4168  172.2039 H       1  UNL1        0.2414
@<TRIPOS>BOND
     1    21    22    2
     2    22    19    1
     3    19    20    2
     4    20     1    1
     5     1     2   ar
     6     2     3   ar
     7     3     4   ar
     8     4     5   ar
     9     5     6   ar
    10     5     7    1
    11     7     8    1
    12     8    10    1
    13    10    11    2
    14    10    12    2
    15    10    13    1
    16    13    14   ar
    17    14    15   ar
    18    15    16   ar
    19    16    17   ar
    20    17    18   ar
    21     8     9    1
    22    22    23   am
    23    23    24    1
    24     6     1   ar
    25    18    13   ar
    26     9     4    1
    27    23    25    1
    28    24    26    1
@<TRIPOS>MOLECULE
*****
 26 28 0 0 0
SMALL
GASTEIGER

@<TRIPOS>ATOM
      1 C         140.3194  143.2208  166.1947 C.ar    1  UNL1       -0.0001
      2 C         139.1873  144.1969  166.0700 C.ar    1  UNL1       -0.0003
      3 C         138.9026  144.8506  164.7503 C.ar    1  UNL1       -0.0031
      4 C         139.7501  144.5283  163.5553 C.ar    1  UNL1       -0.0071
      5 C         140.8822  143.5522  163.6801 C.ar    1  UNL1       -0.0071
      6 C         141.1668  142.8985  164.9998 C.ar    1  UNL1       -0.0031
      7 C         141.5411  143.4325  162.3379 C.3     1  UNL1        0.1222
      8 N         140.8162  144.3346  161.3836 N.3     1  UNL1       -0.1466
      9 C         139.7093  145.0118  162.1360 C.3     1  UNL1        0.1222
     10 S         141.1411  144.5259  159.9317 S.O2    1  UNL1        0.0639
     11 O         139.6887  144.7580  159.6372 O.2     1  UNL1       -0.1528
     12 O         142.5935  144.2938  160.2262 O.2     1  UNL1       -0.1528
     13 C         141.4661  144.7172  158.4799 C.ar    1  UNL1        0.1222
     14 C         140.8702  145.8671  157.7231 C.ar    1  UNL1        0.0199
     15 C         141.1951  146.0584  156.2713 C.ar    1  UNL1        0.0014
     16 C         142.1161  145.0998  155.5762 C.ar    1  UNL1        0.0001
     17 C         142.7120  143.9500  156.3330 C.ar    1  UNL1        0.0014
     18 C         142.3870  143.7587  157.7849 C.ar    1  UNL1        0.0199
     19 C         140.2814  143.2843  168.7917 C.2     1  UNL1        0.0598
     20 C         140.6040  142.5671  167.5144 C.2     1  UNL1        0.0047
     21 O         139.5587  141.7012  170.7208 O.2     1  UNL1       -0.2681
     22 C         140.5660  142.6305  170.1115 C.2     1  UNL1        0.2679
     23 N         141.8582  142.9062  170.8218 N.am    1  UNL1       -0.1934
     24 O         142.1428  142.2525  172.1415 O.3     1  UNL1       -0.2949
     25 H         142.5194  143.5162  170.4218 H       1  UNL1        0.1825
     26 H         141.3947  141.6874  172.3904 H       1  UNL1        0.2414
@<TRIPOS>BOND
     1    21    22    2
     2    22    19    1
     3    19    20    2
     4    20     1    1
     5     1     2   ar
     6     2     3   ar
     7     3     4   ar
     8     4     5   ar
     9     5     6   ar
    10     5     7    1
    11     7     8    1
    12     8    10    1
    13    10    11    2
    14    10    12    2
    15    10    13    1
    16    13    14   ar
    17    14    15   ar
    18    15    16   ar
    19    16    17   ar
    20    17    18   ar
    21     8     9    1
    22    22    23   am
    23    23    24    1
    24     6     1   ar
    25    18    13   ar
    26     9     4    1
    27    23    25    1
    28    24    26    1
@<TRIPOS>MOLECULE
*****
 26 28 0 0 0
SMALL
GASTEIGER

@<TRIPOS>ATOM
      1 C         142.3067  139.5407  169.7434 C.ar    1  UNL1       -0.0001
      2 C         140.8472  139.7132  170.0432 C.ar    1  UNL1       -0.0003
      3 C         139.9797  140.5097  169.1142 C.ar    1  UNL1       -0.0031
      4 C         140.5717  141.1338  167.8854 C.ar    1  UNL1       -0.0071
      5 C         142.0313  140.9613  167.5856 C.ar    1  UNL1       -0.0071
      6 C         142.8988  140.1648  168.5146 C.ar    1  UNL1       -0.0031
      7 C         142.3312  141.6880  166.3081 C.3     1  UNL1        0.1222
      8 N         141.0569  142.3096  165.8184 N.3     1  UNL1       -0.1466
      9 C         139.9695  141.9671  166.7932 C.3     1  UNL1        0.1222
     10 S         140.8979  143.1298  164.5725 S.O2    1  UNL1        0.0639
     11 O         142.3703  143.0158  164.3095 O.2     1  UNL1       -0.1528
     12 O         139.4255  143.2437  164.8355 O.2     1  UNL1       -0.1528
     13 C         140.7388  143.9499  163.3267 C.ar    1  UNL1        0.1222
     14 C         139.7607  145.0867  163.2970 C.ar    1  UNL1        0.0199
     15 C         139.6016  145.9069  162.0512 C.ar    1  UNL1        0.0014
     16 C         140.4207  145.5902  160.8351 C.ar    1  UNL1        0.0001
     17 C         141.3988  144.4534  160.8648 C.ar    1  UNL1        0.0014
     18 C         141.5578  143.6332  162.1107 C.ar    1  UNL1        0.0199
     19 C         143.5617  137.3394  170.3171 C.2     1  UNL1        0.0598
     20 C         143.1742  138.7442  170.6724 C.2     1  UNL1        0.0047
     21 O         145.8764  136.9003  171.4121 O.2     1  UNL1       -0.2681
     22 C         144.4291  136.5429  171.2461 C.2     1  UNL1        0.2679
     23 N         143.8493  135.3889  172.0092 N.am    1  UNL1       -0.1934
     24 O         144.7167  134.5924  172.9382 O.3     1  UNL1       -0.2949
     25 H         142.8993  135.1543  171.9003 H       1  UNL1        0.1825
     26 H         145.6173  134.9527  172.9283 H       1  UNL1        0.2414
@<TRIPOS>BOND
     1    21    22    2
     2    22    19    1
     3    19    20    2
     4    20     1    1
     5     1     2   ar
     6     2     3   ar
     7     3     4   ar
     8     4     5   ar
     9     5     6   ar
    10     5     7    1
    11     7     8    1
    12     8    10    1
    13    10    11    2
    14    10    12    2
    15    10    13    1
    16    13    14   ar
    17    14    15   ar
    18    15    16   ar
    19    16    17   ar
    20    17    18   ar
    21     8     9    1
    22    22    23   am
    23    23    24    1
    24     6     1   ar
    25    18    13   ar
    26     9     4    1
    27    23    25    1
    28    24    26    1
@<TRIPOS>MOLECULE
*****
 26 28 0 0 0
SMALL
GASTEIGER

@<TRIPOS>ATOM
      1 C         139.5919  139.8126  167.3303 C.ar    1  UNL1       -0.0001
      2 C         138.3541  138.9889  167.1325 C.ar    1  UNL1       -0.0003
      3 C         138.0442  138.4129  165.7826 C.ar    1  UNL1       -0.0031
      4 C         138.9722  138.6607  164.6305 C.ar    1  UNL1       -0.0071
      5 C         140.2100  139.4844  164.8283 C.ar    1  UNL1       -0.0071
      6 C         140.5199  140.0604  166.1782 C.ar    1  UNL1       -0.0031
      7 C         140.9321  139.5588  163.5156 C.3     1  UNL1        0.1222
      8 N         140.1404  138.7810  162.5065 N.3     1  UNL1       -0.1466
      9 C         138.9292  138.2259  163.1956 C.3     1  UNL1        0.1222
     10 S         140.4973  138.5915  161.0619 S.O2    1  UNL1        0.0639
     11 O         139.0935  138.1487  160.7732 O.2     1  UNL1       -0.1528
     12 O         141.9011  139.0343  161.3507 O.2     1  UNL1       -0.1528
     13 C         140.8543  138.4020  159.6174 C.ar    1  UNL1        0.1222
     14 C         142.2842  138.1828  159.2207 C.ar    1  UNL1        0.0199
     15 C         142.6411  137.9933  157.7761 C.ar    1  UNL1        0.0014
     16 C         141.5681  138.0231  156.7283 C.ar    1  UNL1        0.0001
     17 C         140.1382  138.2423  157.1250 C.ar    1  UNL1        0.0014
     18 C         139.7813  138.4318  158.5696 C.ar    1  UNL1        0.0199
     19 C         140.3543  141.8135  168.8018 C.2     1  UNL1        0.0598
     20 C         139.9017  140.3886  168.6803 C.2     1  UNL1        0.0047
     21 O         139.8254  143.5047  170.7018 O.2     1  UNL1       -0.2681
     22 C         140.6642  142.3895  170.1517 C.2     1  UNL1        0.2679
     23 N         141.8128  141.8502  170.9516 N.am    1  UNL1       -0.1934
     24 O         142.1227  142.4261  172.3015 O.3     1  UNL1       -0.2949
     25 H         142.3634  141.1182  170.5906 H       1  UNL1        0.1825
     26 H         141.4899  143.1327  172.5045 H       1  UNL1        0.2414
@<TRIPOS>BOND
     1    21    22    2
     2    22    19    1
     3    19    20    2
     4    20     1    1
     5     1     2   ar
     6     2     3   ar
     7     3     4   ar
     8     4     5   ar
     9     5     6   ar
    10     5     7    1
    11     7     8    1
    12     8    10    1
    13    10    11    2
    14    10    12    2
    15    10    13    1
    16    13    14   ar
    17    14    15   ar
    18    15    16   ar
    19    16    17   ar
    20    17    18   ar
    21     8     9    1
    22    22    23   am
    23    23    24    1
    24     6     1   ar
    25    18    13   ar
    26     9     4    1
    27    23    25    1
    28    24    26    1
@<TRIPOS>MOLECULE
*****
 26 28 0 0 0
SMALL
GASTEIGER

@<TRIPOS>ATOM
      1 C         140.9276  142.0580  166.8007 C.ar    1  UNL1       -0.0001
      2 C         142.4004  142.3207  166.6926 C.ar    1  UNL1       -0.0003
      3 C         142.9798  142.8249  165.4042 C.ar    1  UNL1       -0.0031
      4 C         142.0863  143.0665  164.2238 C.ar    1  UNL1       -0.0071
      5 C         140.6135  142.8039  164.3319 C.ar    1  UNL1       -0.0071
      6 C         140.0341  142.2996  165.6204 C.ar    1  UNL1       -0.0031
      7 C         139.9857  143.1323  163.0097 C.3     1  UNL1        0.1222
      8 N         141.0707  143.5979  162.0844 N.3     1  UNL1       -0.1466
      9 C         142.3689  143.5572  162.8348 C.3     1  UNL1        0.1222
     10 S         140.8894  144.0285  160.6590 S.O2    1  UNL1        0.0639
     11 O         139.4286  143.6982  160.7451 O.2     1  UNL1       -0.1528
     12 O         142.3500  144.3587  160.5730 O.2     1  UNL1       -0.1528
     13 C         140.7081  144.4591  159.2337 C.ar    1  UNL1        0.1222
     14 C         139.6620  143.8057  158.3800 C.ar    1  UNL1        0.0199
     15 C         139.4807  144.2363  156.9547 C.ar    1  UNL1        0.0014
     16 C         140.3455  145.3204  156.3829 C.ar    1  UNL1        0.0001
     17 C         141.3916  145.9739  157.2366 C.ar    1  UNL1        0.0014
     18 C         141.5729  145.5432  158.6620 C.ar    1  UNL1        0.0199
     19 C         141.2096  141.4621  169.3137 C.2     1  UNL1        0.0598
     20 C         140.3482  141.5538  168.0892 C.2     1  UNL1        0.0047
     21 O         140.6075  141.8442  171.8120 O.2     1  UNL1       -0.2681
     22 C         140.6302  140.9579  170.6022 C.2     1  UNL1        0.2679
     23 N         140.0735  139.5671  170.6807 N.am    1  UNL1       -0.1934
     24 O         139.4941  139.0629  171.9692 O.3     1  UNL1       -0.2949
     25 H         140.0884  138.9854  169.8866 H       1  UNL1        0.1825
     26 H         139.5572  139.7557  172.6451 H       1  UNL1        0.2414
@<TRIPOS>BOND
     1    21    22    2
     2    22    19    1
     3    19    20    2
     4    20     1    1
     5     1     2   ar
     6     2     3   ar
     7     3     4   ar
     8     4     5   ar
     9     5     6   ar
    10     5     7    1
    11     7     8    1
    12     8    10    1
    13    10    11    2
    14    10    12    2
    15    10    13    1
    16    13    14   ar
    17    14    15   ar
    18    15    16   ar
    19    16    17   ar
    20    17    18   ar
    21     8     9    1
    22    22    23   am
    23    23    24    1
    24     6     1   ar
    25    18    13   ar
    26     9     4    1
    27    23    25    1
    28    24    26    1
@<TRIPOS>MOLECULE
*****
 26 28 0 0 0
SMALL
GASTEIGER

@<TRIPOS>ATOM
      1 C         142.3646  139.0851  169.6303 C.ar    1  UNL1       -0.0001
      2 C         141.0584  139.6420  170.1137 C.ar    1  UNL1       -0.0003
      3 C         140.0978  140.2555  169.1386 C.ar    1  UNL1       -0.0031
      4 C         140.4433  140.3120  167.6801 C.ar    1  UNL1       -0.0071
      5 C         141.7494  139.7551  167.1967 C.ar    1  UNL1       -0.0071
      6 C         142.7101  139.1416  168.1718 C.ar    1  UNL1       -0.0031
      7 C         141.8154  139.9509  165.7109 C.3     1  UNL1        0.1222
      8 N         140.5499  140.6289  165.2762 N.3     1  UNL1       -0.1466
      9 C         139.7020  140.8521  166.4932 C.3     1  UNL1        0.1222
     10 S         140.1948  141.0158  163.8710 S.O2    1  UNL1        0.0639
     11 O         140.5638  142.4388  164.1696 O.2     1  UNL1       -0.1528
     12 O         139.8258  139.5929  163.5726 O.2     1  UNL1       -0.1528
     13 C         139.8396  141.4026  162.4660 C.ar    1  UNL1        0.1222
     14 C         138.7028  142.3479  162.2129 C.ar    1  UNL1        0.0199
     15 C         138.3476  142.7347  160.8079 C.ar    1  UNL1        0.0014
     16 C         139.1294  142.1762  159.6558 C.ar    1  UNL1        0.0001
     17 C         140.2662  141.2310  159.9089 C.ar    1  UNL1        0.0014
     18 C         140.6213  140.8441  161.3141 C.ar    1  UNL1        0.0199
     19 C         143.6879  137.0208  170.4890 C.2     1  UNL1        0.0598
     20 C         143.3252  138.4716  170.6054 C.2     1  UNL1        0.0047
     21 O         145.9009  137.1397  171.8448 O.2     1  UNL1       -0.2681
     22 C         144.6485  136.4073  171.4641 C.2     1  UNL1        0.2679
     23 N         144.3566  135.0613  172.0585 N.am    1  UNL1       -0.1934
     24 O         145.3173  134.4478  173.0336 O.3     1  UNL1       -0.2949
     25 H         143.5346  134.5806  171.8087 H       1  UNL1        0.1825
     26 H         146.0679  135.0471  173.1686 H       1  UNL1        0.2414
@<TRIPOS>BOND
     1    21    22    2
     2    22    19    1
     3    19    20    2
     4    20     1    1
     5     1     2   ar
     6     2     3   ar
     7     3     4   ar
     8     4     5   ar
     9     5     6   ar
    10     5     7    1
    11     7     8    1
    12     8    10    1
    13    10    11    2
    14    10    12    2
    15    10    13    1
    16    13    14   ar
    17    14    15   ar
    18    15    16   ar
    19    16    17   ar
    20    17    18   ar
    21     8     9    1
    22    22    23   am
    23    23    24    1
    24     6     1   ar
    25    18    13   ar
    26     9     4    1
    27    23    25    1
    28    24    26    1
@<TRIPOS>MOLECULE
*****
 26 28 0 0 0
SMALL
GASTEIGER

@<TRIPOS>ATOM
      1 C         142.7540  138.7053  169.8560 C.ar    1  UNL1       -0.0001
      2 C         142.0650  139.6670  170.7781 C.ar    1  UNL1       -0.0003
      3 C         141.4418  140.9163  170.2295 C.ar    1  UNL1       -0.0031
      4 C         141.5077  141.2039  168.7588 C.ar    1  UNL1       -0.0071
      5 C         142.1968  140.2422  167.8368 C.ar    1  UNL1       -0.0071
      6 C         142.8199  138.9929  168.3853 C.ar    1  UNL1       -0.0031
      7 C         142.1037  140.7889  166.4430 C.3     1  UNL1        0.1222
      8 N         141.3572  142.0885  166.5037 N.3     1  UNL1       -0.1466
      9 C         140.9888  142.3450  167.9350 C.3     1  UNL1        0.1222
     10 S         141.0354  142.9758  165.3378 S.O2    1  UNL1        0.0639
     11 O         139.5710  142.7437  165.5653 O.2     1  UNL1       -0.1528
     12 O         142.4998  143.2079  165.1104 O.2     1  UNL1       -0.1528
     13 C         140.7137  143.8631  164.1720 C.ar    1  UNL1        0.1222
     14 C         141.7516  144.1274  163.1218 C.ar    1  UNL1        0.0199
     15 C         141.4299  145.0147  161.9560 C.ar    1  UNL1        0.0014
     16 C         140.0703  145.6378  161.8404 C.ar    1  UNL1        0.0001
     17 C         139.0324  145.3735  162.8906 C.ar    1  UNL1        0.0014
     18 C         139.3542  144.4862  164.0565 C.ar    1  UNL1        0.0199
     19 C         144.6533  137.5364  171.1887 C.2     1  UNL1        0.0598
     20 C         143.3772  137.4560  170.4046 C.2     1  UNL1        0.0047
     21 O         146.7625  136.0959  171.6647 O.2     1  UNL1       -0.2681
     22 C         145.2765  136.2871  171.7373 C.2     1  UNL1        0.2679
     23 N         144.4136  135.2289  172.3585 N.am    1  UNL1       -0.1934
     24 O         145.0367  133.9796  172.9071 O.3     1  UNL1       -0.2949
     25 H         143.4383  135.3544  172.4061 H       1  UNL1        0.1825
     26 H         145.9978  134.0155  172.7811 H       1  UNL1        0.2414
@<TRIPOS>BOND
     1    21    22    2
     2    22    19    1
     3    19    20    2
     4    20     1    1
     5     1     2   ar
     6     2     3   ar
     7     3     4   ar
     8     4     5   ar
     9     5     6   ar
    10     5     7    1
    11     7     8    1
    12     8    10    1
    13    10    11    2
    14    10    12    2
    15    10    13    1
    16    13    14   ar
    17    14    15   ar
    18    15    16   ar
    19    16    17   ar
    20    17    18   ar
    21     8     9    1
    22    22    23   am
    23    23    24    1
    24     6     1   ar
    25    18    13   ar
    26     9     4    1
    27    23    25    1
    28    24    26    1
@<TRIPOS>MOLECULE
*****
 26 28 0 0 0
SMALL
GASTEIGER

@<TRIPOS>ATOM
      1 C         142.8334  142.1867  166.1516 C.ar    1  UNL1       -0.0001
      2 C         144.1233  142.8526  165.7742 C.ar    1  UNL1       -0.0003
      3 C         144.7132  142.6281  164.4134 C.ar    1  UNL1       -0.0031
      4 C         144.0131  141.7377  163.4301 C.ar    1  UNL1       -0.0071
      5 C         142.7232  141.0718  163.8075 C.ar    1  UNL1       -0.0071
      6 C         142.1333  141.2962  165.1683 C.ar    1  UNL1       -0.0031
      7 C         142.2640  140.2537  162.6370 C.3     1  UNL1        0.1222
      8 N         143.2701  140.4141  161.5362 N.3     1  UNL1       -0.1466
      9 C         144.3512  141.3313  162.0263 C.3     1  UNL1        0.1222
     10 S         143.2065  139.7704  160.1828 S.O2    1  UNL1        0.0639
     11 O         142.0663  140.6704  159.8083 O.2     1  UNL1       -0.1528
     12 O         144.3466  138.8705  160.5572 O.2     1  UNL1       -0.1528
     13 C         143.1429  139.1267  158.8294 C.ar    1  UNL1        0.1222
     14 C         142.7083  137.6971  158.6986 C.ar    1  UNL1        0.0199
     15 C         142.6447  137.0534  157.3452 C.ar    1  UNL1        0.0014
     16 C         143.0158  137.8393  156.1227 C.ar    1  UNL1        0.0001
     17 C         143.4504  139.2690  156.2535 C.ar    1  UNL1        0.0014
     18 C         143.5140  139.9127  157.6069 C.ar    1  UNL1        0.0199
     19 C         143.1351  142.4597  168.7176 C.2     1  UNL1        0.0598
     20 C         142.2435  142.4111  167.5124 C.2     1  UNL1        0.0047
     21 O         143.0747  143.7812  170.9536 O.2     1  UNL1       -0.2681
     22 C         142.5453  142.6841  170.0784 C.2     1  UNL1        0.2679
     23 N         141.4259  141.8115  170.5638 N.am    1  UNL1       -0.1934
     24 O         140.8361  142.0359  171.9246 O.3     1  UNL1       -0.2949
     25 H         141.0784  141.0914  169.9894 H       1  UNL1        0.1825
     26 H         141.2893  142.7777  172.3551 H       1  UNL1        0.2414
@<TRIPOS>BOND
     1    21    22    2
     2    22    19    1
     3    19    20    2
     4    20     1    1
     5     1     2   ar
     6     2     3   ar
     7     3     4   ar
     8     4     5   ar
     9     5     6   ar
    10     5     7    1
    11     7     8    1
    12     8    10    1
    13    10    11    2
    14    10    12    2
    15    10    13    1
    16    13    14   ar
    17    14    15   ar
    18    15    16   ar
    19    16    17   ar
    20    17    18   ar
    21     8     9    1
    22    22    23   am
    23    23    24    1
    24     6     1   ar
    25    18    13   ar
    26     9     4    1
    27    23    25    1
    28    24    26    1
@<TRIPOS>MOLECULE
*****
 26 28 0 0 0
SMALL
GASTEIGER

@<TRIPOS>ATOM
      1 C         137.8551  139.5260  161.3145 C.ar    1  UNL1       -0.0001
      2 C         138.2124  138.0950  161.5871 C.ar    1  UNL1       -0.0003
      3 C         138.7920  137.7065  162.9150 C.ar    1  UNL1       -0.0031
      4 C         139.0143  138.7491  163.9702 C.ar    1  UNL1       -0.0071
      5 C         138.6570  140.1802  163.6976 C.ar    1  UNL1       -0.0071
      6 C         138.0774  140.5686  162.3697 C.ar    1  UNL1       -0.0031
      7 C         138.9869  140.9817  164.9219 C.3     1  UNL1        0.1222
      8 N         139.5481  140.0460  165.9511 N.3     1  UNL1       -0.1466
      9 C         139.5650  138.6662  165.3630 C.3     1  UNL1        0.1222
     10 S         140.0111  140.4236  167.3270 S.O2    1  UNL1        0.0639
     11 O         141.0135  141.3670  166.7308 O.2     1  UNL1       -0.1528
     12 O         139.0087  139.4804  167.9232 O.2     1  UNL1       -0.1528
     13 C         140.4740  140.8013  168.7029 C.ar    1  UNL1        0.1222
     14 C         141.3746  139.8795  169.4705 C.ar    1  UNL1        0.0199
     15 C         141.8376  140.2572  170.8464 C.ar    1  UNL1        0.0014
     16 C         141.3999  141.5566  171.4547 C.ar    1  UNL1        0.0001
     17 C         140.4992  142.4784  170.6871 C.ar    1  UNL1        0.0014
     18 C         140.0363  142.1007  169.3111 C.ar    1  UNL1        0.0199
     19 C         138.1260  140.6255  158.9762 C.2     1  UNL1        0.0598
     20 C         137.2755  139.9145  159.9866 C.2     1  UNL1        0.0047
     21 O         137.4285  139.9945  156.5544 O.2     1  UNL1       -0.2681
     22 C         137.5464  141.0139  157.6483 C.2     1  UNL1        0.2679
     23 N         137.0847  142.4219  157.4145 N.am    1  UNL1       -0.1934
     24 O         136.5051  142.8103  156.0867 O.3     1  UNL1       -0.2949
     25 H         137.1621  143.0910  158.1325 H       1  UNL1        0.1825
     26 H         136.5012  142.0396  155.4977 H       1  UNL1        0.2414
@<TRIPOS>BOND
     1    21    22    2
     2    22    19    1
     3    19    20    2
     4    20     1    1
     5     1     2   ar
     6     2     3   ar
     7     3     4   ar
     8     4     5   ar
     9     5     6   ar
    10     5     7    1
    11     7     8    1
    12     8    10    1
    13    10    11    2
    14    10    12    2
    15    10    13    1
    16    13    14   ar
    17    14    15   ar
    18    15    16   ar
    19    16    17   ar
    20    17    18   ar
    21     8     9    1
    22    22    23   am
    23    23    24    1
    24     6     1   ar
    25    18    13   ar
    26     9     4    1
    27    23    25    1
    28    24    26    1
