@<TRIPOS>MOLECULE
*****
 24 27 0 0 0
SMALL
GASTEIGER

@<TRIPOS>ATOM
      1 C         139.0416  139.7712  167.4580 C.3     1  UNL1        0.0722
      2 C         140.1475  139.5924  166.4605 C.ar    1  UNL1        0.1250
      3 N         139.9906  139.1200  165.0455 N.ar    1  UNL1       -0.2299
      4 C         141.3506  139.0902  164.4132 C.ar    1  UNL1        0.1082
      5 C         141.8095  138.7084  163.0372 C.ar    1  UNL1        0.0875
      6 C         143.2659  138.7804  162.6855 C.ar    1  UNL1        0.0119
      7 C         144.2633  139.2343  163.7098 C.ar    1  UNL1        0.0023
      8 C         143.8043  139.6161  165.0858 C.ar    1  UNL1        0.0191
      9 C         142.3479  139.5441  165.4376 C.ar    1  UNL1        0.0837
     10 N         141.6044  139.8544  166.7028 N.ar    1  UNL1       -0.2882
     11 C         142.2113  140.3413  167.9852 C.ar    1  UNL1        0.0953
     12 C         142.3887  139.5360  169.2382 C.ar    1  UNL1        0.0250
     13 C         143.0343  140.4160  170.2672 C.ar    1  UNL1        0.0131
     14 C         143.2560  141.7652  169.6502 C.ar    1  UNL1        0.0841
     15 S         142.7472  141.7189  168.2398 S.2     1  UNL1       -0.0648
     16 C         143.8771  142.9520  170.3250 C.2     1  UNL1        0.2519
     17 O         143.0070  143.9786  170.9877 O.2     1  UNL1       -0.2696
     18 N         145.3685  143.1124  170.3371 N.am    1  UNL1       -0.3021
     19 H         145.9396  142.4387  169.9022 H       1  UNL1        0.1497
     20 C         145.9896  144.2994  171.0119 C.3     1  UNL1        0.0720
     21 C         145.8499  145.6393  171.6714 C.3     1  UNL1        0.0213
     22 C         147.2054  145.0152  171.5213 C.3     1  UNL1        0.0213
     23 C         140.8122  138.2545  162.0129 C.1     1  UNL1        0.1020
     24 N         139.8148  137.8006  160.9886 N.1     1  UNL1       -0.1908
@<TRIPOS>BOND
     1     1     2    1
     2     2     3   ar
     3     3     4   ar
     4     4     5   ar
     5     5    23    1
     6    23    24    3
     7     5     6   ar
     8     6     7   ar
     9     7     8   ar
    10     8     9   ar
    11     9    10   ar
    12    10    11    1
    13    11    12   ar
    14    12    13   ar
    15    13    14   ar
    16    14    16    1
    17    16    17    2
    18    16    18   am
    19    18    20    1
    20    20    21    1
    21    21    22    1
    22    14    15   ar
    23    10     2   ar
    24    15    11   ar
    25     9     4   ar
    26    22    20    1
    27    18    19    1
@<TRIPOS>MOLECULE
*****
 24 27 0 0 0
SMALL
GASTEIGER

@<TRIPOS>ATOM
      1 C         143.8299  137.9959  166.2682 C.3     1  UNL1        0.0722
      2 C         142.5680  138.6999  165.8656 C.ar    1  UNL1        0.1250
      3 N         141.7865  138.4587  164.6082 N.ar    1  UNL1       -0.2299
      4 C         140.6016  139.3785  164.6153 C.ar    1  UNL1        0.1082
      5 C         139.4842  139.5833  163.6358 C.ar    1  UNL1        0.0875
      6 C         138.4160  140.5978  163.9180 C.ar    1  UNL1        0.0119
      7 C         138.4652  141.4075  165.1798 C.ar    1  UNL1        0.0023
      8 C         139.5826  141.2026  166.1593 C.ar    1  UNL1        0.0191
      9 C         140.6508  140.1881  165.8770 C.ar    1  UNL1        0.0837
     10 N         141.8661  139.7687  166.6498 N.ar    1  UNL1       -0.2882
     11 C         142.3028  140.3212  167.9742 C.ar    1  UNL1        0.0953
     12 C         142.1814  139.6313  169.3006 C.ar    1  UNL1        0.0250
     13 C         142.7411  140.5442  170.3509 C.ar    1  UNL1        0.0131
     14 C         143.2084  141.7985  169.6737 C.ar    1  UNL1        0.0841
     15 S         142.9375  141.6605  168.2048 S.2     1  UNL1       -0.0648
     16 C         143.8363  142.9826  170.3471 C.2     1  UNL1        0.2519
     17 O         142.9732  144.0040  171.0266 O.2     1  UNL1       -0.2696
     18 N         145.3275  143.1453  170.3410 N.am    1  UNL1       -0.3021
     19 H         145.8940  142.4750  169.8951 H       1  UNL1        0.1497
     20 C         145.9554  144.3295  171.0145 C.3     1  UNL1        0.0720
     21 C         145.8267  145.6831  171.6479 C.3     1  UNL1        0.0213
     22 C         147.1717  145.0269  171.5475 C.3     1  UNL1        0.0213
     23 C         139.4350  138.7737  162.3740 C.1     1  UNL1        0.1020
     24 N         139.3858  137.9641  161.1122 N.1     1  UNL1       -0.1908
@<TRIPOS>BOND
     1     1     2    1
     2     2     3   ar
     3     3     4   ar
     4     4     5   ar
     5     5    23    1
     6    23    24    3
     7     5     6   ar
     8     6     7   ar
     9     7     8   ar
    10     8     9   ar
    11     9    10   ar
    12    10    11    1
    13    11    12   ar
    14    12    13   ar
    15    13    14   ar
    16    14    16    1
    17    16    17    2
    18    16    18   am
    19    18    20    1
    20    20    21    1
    21    21    22    1
    22    14    15   ar
    23    10     2   ar
    24    15    11   ar
    25     9     4   ar
    26    22    20    1
    27    18    19    1
@<TRIPOS>MOLECULE
*****
 24 27 0 0 0
SMALL
GASTEIGER

@<TRIPOS>ATOM
      1 C         139.7411  143.7431  165.3653 C.3     1  UNL1        0.0722
      2 C         140.7616  142.6536  165.2184 C.ar    1  UNL1        0.1250
      3 N         141.5989  142.3878  164.0026 N.ar    1  UNL1       -0.2299
      4 C         142.4787  141.2084  164.2944 C.ar    1  UNL1        0.1082
      5 C         143.5091  140.4964  163.4691 C.ar    1  UNL1        0.0875
      6 C         144.2460  139.3212  164.0400 C.ar    1  UNL1        0.0119
      7 C         143.9523  138.8581  165.4362 C.ar    1  UNL1        0.0023
      8 C         142.9219  139.5701  166.2614 C.ar    1  UNL1        0.0191
      9 C         142.1850  140.7452  165.6905 C.ar    1  UNL1        0.0837
     10 N         141.1238  141.6384  166.2616 N.ar    1  UNL1       -0.2882
     11 C         140.5292  141.5346  167.6348 C.ar    1  UNL1        0.0953
     12 C         140.5081  142.6192  168.6707 C.ar    1  UNL1        0.0250
     13 C         139.8172  142.0829  169.8893 C.ar    1  UNL1        0.0131
     14 C         139.4113  140.6668  169.6066 C.ar    1  UNL1        0.0841
     15 S         139.8514  140.3280  168.2132 S.2     1  UNL1       -0.0648
     16 C         138.6918  139.7505  170.5513 C.2     1  UNL1        0.2519
     17 O         139.4541  139.0287  171.6228 O.2     1  UNL1       -0.2696
     18 N         137.2098  139.5560  170.4247 N.am    1  UNL1       -0.3021
     19 H         136.7095  140.0297  169.7216 H       1  UNL1        0.1497
     20 C         136.4903  138.6396  171.3695 C.3     1  UNL1        0.0720
     21 C         135.3497  138.3756  172.3072 C.3     1  UNL1        0.0213
     22 C         136.3846  137.3165  172.0682 C.3     1  UNL1        0.0213
     23 C         143.8028  140.9596  162.0730 C.1     1  UNL1        0.1020
     24 N         144.0964  141.4227  160.6768 N.1     1  UNL1       -0.1908
@<TRIPOS>BOND
     1     1     2    1
     2     2     3   ar
     3     3     4   ar
     4     4     5   ar
     5     5    23    1
     6    23    24    3
     7     5     6   ar
     8     6     7   ar
     9     7     8   ar
    10     8     9   ar
    11     9    10   ar
    12    10    11    1
    13    11    12   ar
    14    12    13   ar
    15    13    14   ar
    16    14    16    1
    17    16    17    2
    18    16    18   am
    19    18    20    1
    20    20    21    1
    21    21    22    1
    22    14    15   ar
    23    10     2   ar
    24    15    11   ar
    25     9     4   ar
    26    22    20    1
    27    18    19    1
@<TRIPOS>MOLECULE
*****
 24 27 0 0 0
SMALL
GASTEIGER

@<TRIPOS>ATOM
      1 C         137.3940  138.2507  167.2638 C.3     1  UNL1        0.0722
      2 C         138.5806  139.1639  167.3534 C.ar    1  UNL1        0.1250
      3 N         139.0521  139.8787  168.5850 N.ar    1  UNL1       -0.2299
      4 C         140.2669  140.6792  168.2199 C.ar    1  UNL1        0.1082
      5 C         141.1548  141.5801  169.0262 C.ar    1  UNL1        0.0875
      6 C         142.3221  142.2609  168.3751 C.ar    1  UNL1        0.0119
      7 C         142.6014  142.0410  166.9179 C.ar    1  UNL1        0.0023
      8 C         141.7135  141.1401  166.1117 C.ar    1  UNL1        0.0191
      9 C         140.5462  140.4592  166.7627 C.ar    1  UNL1        0.0837
     10 N         139.5040  139.5227  166.2272 N.ar    1  UNL1       -0.2882
     11 C         139.4031  139.0313  164.8136 C.ar    1  UNL1        0.0953
     12 C         139.7463  137.6525  164.3328 C.ar    1  UNL1        0.0250
     13 C         139.4965  137.6015  162.8547 C.ar    1  UNL1        0.0131
     14 C         138.9989  138.9487  162.4218 C.ar    1  UNL1        0.0841
     15 S         138.9412  139.8323  163.6325 S.2     1  UNL1       -0.0648
     16 C         138.6247  139.3430  161.0238 C.2     1  UNL1        0.2519
     17 O         137.1805  139.5006  160.6500 O.2     1  UNL1       -0.2696
     18 N         139.6946  139.5798  159.9995 N.am    1  UNL1       -0.3021
     19 H         140.6424  139.4764  160.2448 H       1  UNL1        0.1497
     20 C         139.3204  139.9741  158.6015 C.3     1  UNL1        0.0720
     21 C         138.5221  140.8290  157.6625 C.3     1  UNL1        0.0213
     22 C         139.4707  139.8021  157.1190 C.3     1  UNL1        0.0213
     23 C         140.8755  141.8001  170.4834 C.1     1  UNL1        0.1020
     24 N         140.5961  142.0200  171.9407 N.1     1  UNL1       -0.1908
@<TRIPOS>BOND
     1     1     2    1
     2     2     3   ar
     3     3     4   ar
     4     4     5   ar
     5     5    23    1
     6    23    24    3
     7     5     6   ar
     8     6     7   ar
     9     7     8   ar
    10     8     9   ar
    11     9    10   ar
    12    10    11    1
    13    11    12   ar
    14    12    13   ar
    15    13    14   ar
    16    14    16    1
    17    16    17    2
    18    16    18   am
    19    18    20    1
    20    20    21    1
    21    21    22    1
    22    14    15   ar
    23    10     2   ar
    24    15    11   ar
    25     9     4   ar
    26    22    20    1
    27    18    19    1
@<TRIPOS>MOLECULE
*****
 24 27 0 0 0
SMALL
GASTEIGER

@<TRIPOS>ATOM
      1 C         137.6710  138.5266  161.7130 C.3     1  UNL1        0.0722
      2 C         139.1708  138.5072  161.6955 C.ar    1  UNL1        0.1250
      3 N         140.0369  138.3894  160.4765 N.ar    1  UNL1       -0.2299
      4 C         141.4692  138.4116  160.9216 C.ar    1  UNL1        0.1082
      5 C         142.7584  138.3290  160.1594 C.ar    1  UNL1        0.0875
      6 C         144.0668  138.3780  160.8913 C.ar    1  UNL1        0.0119
      7 C         144.0859  138.5095  162.3854 C.ar    1  UNL1        0.0023
      8 C         142.7967  138.5920  163.1476 C.ar    1  UNL1        0.0191
      9 C         141.4883  138.5431  162.4157 C.ar    1  UNL1        0.0837
     10 N         140.0678  138.6021  162.8940 N.ar    1  UNL1       -0.2882
     11 C         139.6226  138.7332  164.3204 C.ar    1  UNL1        0.0953
     12 C         138.6395  137.8439  165.0223 C.ar    1  UNL1        0.0250
     13 C         138.4916  138.3376  166.4310 C.ar    1  UNL1        0.0131
     14 C         139.3832  139.5320  166.5997 C.ar    1  UNL1        0.0841
     15 S         140.0822  139.7764  165.2952 S.2     1  UNL1       -0.0648
     16 C         139.5471  140.3400  167.8527 C.2     1  UNL1        0.2519
     17 O         138.9820  139.8378  169.1483 O.2     1  UNL1       -0.2696
     18 N         140.2761  141.6503  167.8103 N.am    1  UNL1       -0.3021
     19 H         140.6470  141.9799  166.9600 H       1  UNL1        0.1497
     20 C         140.4400  142.4583  169.0634 C.3     1  UNL1        0.0720
     21 C         141.2534  143.3915  169.9103 C.3     1  UNL1        0.0213
     22 C         139.9102  142.9245  170.3870 C.3     1  UNL1        0.0213
     23 C         142.7393  138.1975  158.6653 C.1     1  UNL1        0.1020
     24 N         142.7202  138.0660  157.1712 N.1     1  UNL1       -0.1908
@<TRIPOS>BOND
     1     1     2    1
     2     2     3   ar
     3     3     4   ar
     4     4     5   ar
     5     5    23    1
     6    23    24    3
     7     5     6   ar
     8     6     7   ar
     9     7     8   ar
    10     8     9   ar
    11     9    10   ar
    12    10    11    1
    13    11    12   ar
    14    12    13   ar
    15    13    14   ar
    16    14    16    1
    17    16    17    2
    18    16    18   am
    19    18    20    1
    20    20    21    1
    21    21    22    1
    22    14    15   ar
    23    10     2   ar
    24    15    11   ar
    25     9     4   ar
    26    22    20    1
    27    18    19    1
@<TRIPOS>MOLECULE
*****
 24 27 0 0 0
SMALL
GASTEIGER

@<TRIPOS>ATOM
      1 C         144.1027  141.1702  164.7167 C.3     1  UNL1        0.0722
      2 C         143.0806  141.0804  165.8110 C.ar    1  UNL1        0.1250
      3 N         143.1043  141.8401  167.1041 N.ar    1  UNL1       -0.2299
      4 C         141.8937  141.4443  167.8965 C.ar    1  UNL1        0.1082
      5 C         141.3945  141.8687  169.2458 C.ar    1  UNL1        0.0875
      6 C         140.1236  141.2886  169.7917 C.ar    1  UNL1        0.0119
      7 C         139.3518  140.2842  168.9884 C.ar    1  UNL1        0.0023
      8 C         139.8510  139.8598  167.6391 C.ar    1  UNL1        0.0191
      9 C         141.1220  140.4398  167.0932 C.ar    1  UNL1        0.0837
     10 N         141.8555  140.2149  165.8042 N.ar    1  UNL1       -0.2882
     11 C         141.4373  139.2874  164.7021 C.ar    1  UNL1        0.0953
     12 C         141.5562  137.7921  164.7154 C.ar    1  UNL1        0.0250
     13 C         141.0192  137.2728  163.4147 C.ar    1  UNL1        0.0131
     14 C         140.5684  138.4471  162.5974 C.ar    1  UNL1        0.0841
     15 S         140.8269  139.6921  163.3931 S.2     1  UNL1       -0.0648
     16 C         139.9652  138.3869  161.2254 C.2     1  UNL1        0.2519
     17 O         138.5256  138.0010  161.0553 O.2     1  UNL1       -0.2696
     18 N         140.8014  138.7126  160.0235 N.am    1  UNL1       -0.3021
     19 H         141.7462  138.9659  160.1351 H       1  UNL1        0.1497
     20 C         140.1981  138.6524  158.6515 C.3     1  UNL1        0.0720
     21 C         139.5018  139.3284  157.5077 C.3     1  UNL1        0.0213
     22 C         139.8494  137.8721  157.4188 C.3     1  UNL1        0.0213
     23 C         142.1663  142.8732  170.0492 C.1     1  UNL1        0.1020
     24 N         142.9381  143.8776  170.8525 N.1     1  UNL1       -0.1908
@<TRIPOS>BOND
     1     1     2    1
     2     2     3   ar
     3     3     4   ar
     4     4     5   ar
     5     5    23    1
     6    23    24    3
     7     5     6   ar
     8     6     7   ar
     9     7     8   ar
    10     8     9   ar
    11     9    10   ar
    12    10    11    1
    13    11    12   ar
    14    12    13   ar
    15    13    14   ar
    16    14    16    1
    17    16    17    2
    18    16    18   am
    19    18    20    1
    20    20    21    1
    21    21    22    1
    22    14    15   ar
    23    10     2   ar
    24    15    11   ar
    25     9     4   ar
    26    22    20    1
    27    18    19    1
@<TRIPOS>MOLECULE
*****
 24 27 0 0 0
SMALL
GASTEIGER

@<TRIPOS>ATOM
      1 C         144.4375  143.7039  165.1182 C.3     1  UNL1        0.0722
      2 C         143.2698  142.8551  165.5255 C.ar    1  UNL1        0.1250
      3 N         143.2605  141.8394  166.6292 N.ar    1  UNL1       -0.2299
      4 C         141.8913  141.2294  166.6864 C.ar    1  UNL1        0.1082
      5 C         141.2986  140.1749  167.5734 C.ar    1  UNL1        0.0875
      6 C         139.8689  139.7591  167.3919 C.ar    1  UNL1        0.0119
      7 C         139.0319  140.3979  166.3235 C.ar    1  UNL1        0.0023
      8 C         139.6246  141.4524  165.4366 C.ar    1  UNL1        0.0191
      9 C         141.0543  141.8681  165.6180 C.ar    1  UNL1        0.0837
     10 N         141.9063  142.8728  164.9005 N.ar    1  UNL1       -0.2882
     11 C         141.4711  143.7426  163.7586 C.ar    1  UNL1        0.0953
     12 C         140.8630  145.1090  163.8730 C.ar    1  UNL1        0.0250
     13 C         140.5836  145.6096  162.4868 C.ar    1  UNL1        0.0131
     14 C         141.0190  144.5525  161.5157 C.ar    1  UNL1        0.0841
     15 S         141.5675  143.3987  162.3018 S.2     1  UNL1       -0.0648
     16 C         140.9229  144.6349  160.0211 C.2     1  UNL1        0.2519
     17 O         139.9424  143.7715  159.2839 O.2     1  UNL1       -0.2696
     18 N         141.8072  145.5805  159.2636 N.am    1  UNL1       -0.3021
     19 H         142.4507  146.1471  159.7474 H       1  UNL1        0.1497
     20 C         141.7110  145.6628  157.7690 C.3     1  UNL1        0.0720
     21 C         141.0278  146.1797  156.5377 C.3     1  UNL1        0.0213
     22 C         142.2277  145.2885  156.4114 C.3     1  UNL1        0.0213
     23 C         142.1356  139.5362  168.6418 C.1     1  UNL1        0.1020
     24 N         142.9726  138.8975  169.7102 N.1     1  UNL1       -0.1908
@<TRIPOS>BOND
     1     1     2    1
     2     2     3   ar
     3     3     4   ar
     4     4     5   ar
     5     5    23    1
     6    23    24    3
     7     5     6   ar
     8     6     7   ar
     9     7     8   ar
    10     8     9   ar
    11     9    10   ar
    12    10    11    1
    13    11    12   ar
    14    12    13   ar
    15    13    14   ar
    16    14    16    1
    17    16    17    2
    18    16    18   am
    19    18    20    1
    20    20    21    1
    21    21    22    1
    22    14    15   ar
    23    10     2   ar
    24    15    11   ar
    25     9     4   ar
    26    22    20    1
    27    18    19    1
@<TRIPOS>MOLECULE
*****
 24 27 0 0 0
SMALL
GASTEIGER

@<TRIPOS>ATOM
      1 C         137.6392  144.0638  163.4849 C.3     1  UNL1        0.0722
      2 C         137.9910  142.9502  162.5436 C.ar    1  UNL1        0.1250
      3 N         137.8617  142.9846  161.0495 N.ar    1  UNL1       -0.2299
      4 C         138.3246  141.6623  160.5136 C.ar    1  UNL1        0.1082
      5 C         138.4216  141.1238  159.1170 C.ar    1  UNL1        0.0875
      6 C         138.9340  139.7335  158.8832 C.ar    1  UNL1        0.0119
      7 C         139.3493  138.8818  160.0460 C.ar    1  UNL1        0.0023
      8 C         139.2523  139.4204  161.4426 C.ar    1  UNL1        0.0191
      9 C         138.7400  140.8106  161.6764 C.ar    1  UNL1        0.0837
     10 N         138.5338  141.6066  162.9309 N.ar    1  UNL1       -0.2882
     11 C         138.8201  141.1407  164.3277 C.ar    1  UNL1        0.0953
     12 C         138.2243  139.9367  164.9950 C.ar    1  UNL1        0.0250
     13 C         138.7884  139.8488  166.3821 C.ar    1  UNL1        0.0131
     14 C         139.7329  140.9986  166.5721 C.ar    1  UNL1        0.0841
     15 S         139.7524  141.7969  165.3024 S.2     1  UNL1       -0.0648
     16 C         140.5196  141.2974  167.8137 C.2     1  UNL1        0.2519
     17 O         140.0592  140.7672  169.1392 O.2     1  UNL1       -0.2696
     18 N         141.7668  142.1266  167.7299 N.am    1  UNL1       -0.3021
     19 H         142.0691  142.4746  166.8600 H       1  UNL1        0.1497
     20 C         142.5536  142.4254  168.9716 C.3     1  UNL1        0.0720
     21 C         143.8235  142.3169  169.7624 C.3     1  UNL1        0.0213
     22 C         142.6462  143.0517  170.3314 C.3     1  UNL1        0.0213
     23 C         138.0063  141.9755  157.9542 C.1     1  UNL1        0.1020
     24 N         137.5909  142.8271  156.7914 N.1     1  UNL1       -0.1908
@<TRIPOS>BOND
     1     1     2    1
     2     2     3   ar
     3     3     4   ar
     4     4     5   ar
     5     5    23    1
     6    23    24    3
     7     5     6   ar
     8     6     7   ar
     9     7     8   ar
    10     8     9   ar
    11     9    10   ar
    12    10    11    1
    13    11    12   ar
    14    12    13   ar
    15    13    14   ar
    16    14    16    1
    17    16    17    2
    18    16    18   am
    19    18    20    1
    20    20    21    1
    21    21    22    1
    22    14    15   ar
    23    10     2   ar
    24    15    11   ar
    25     9     4   ar
    26    22    20    1
    27    18    19    1
@<TRIPOS>MOLECULE
*****
 24 27 0 0 0
SMALL
GASTEIGER

@<TRIPOS>ATOM
      1 C         140.5867  138.9904  163.9672 C.3     1  UNL1        0.0722
      2 C         140.7557  139.7700  165.2375 C.ar    1  UNL1        0.1250
      3 N         141.3568  139.2581  166.5129 N.ar    1  UNL1       -0.2299
      4 C         141.3259  140.3701  167.5191 C.ar    1  UNL1        0.1082
      5 C         141.7824  140.4456  168.9459 C.ar    1  UNL1        0.0875
      6 C         141.6186  141.7204  169.7193 C.ar    1  UNL1        0.0119
      7 C         140.9984  142.9197  169.0657 C.ar    1  UNL1        0.0023
      8 C         140.5420  142.8442  167.6389 C.ar    1  UNL1        0.0191
      9 C         140.7057  141.5694  166.8656 C.ar    1  UNL1        0.0837
     10 N         140.3533  141.1985  165.4555 N.ar    1  UNL1       -0.2882
     11 C         139.7113  142.0982  164.4415 C.ar    1  UNL1        0.0953
     12 C         138.2404  142.3532  164.2949 C.ar    1  UNL1        0.0250
     13 C         138.0474  143.3135  163.1588 C.ar    1  UNL1        0.0131
     14 C         139.3990  143.6519  162.6032 C.ar    1  UNL1        0.0841
     15 S         140.4272  142.9008  163.3960 S.2     1  UNL1       -0.0648
     16 C         139.6739  144.5786  161.4563 C.2     1  UNL1        0.2519
     17 O         139.3024  146.0284  161.5577 O.2     1  UNL1       -0.2696
     18 N         140.3205  144.0558  160.2079 N.am    1  UNL1       -0.3021
     19 H         140.5644  143.1043  160.1413 H       1  UNL1        0.1497
     20 C         140.5955  144.9826  159.0610 C.3     1  UNL1        0.0720
     21 C         141.5707  145.7101  158.1837 C.3     1  UNL1        0.0213
     22 C         140.0964  145.8603  157.9517 C.3     1  UNL1        0.0213
     23 C         142.4026  139.2463  169.5995 C.1     1  UNL1        0.1020
     24 N         143.0228  138.0471  170.2530 N.1     1  UNL1       -0.1908
@<TRIPOS>BOND
     1     1     2    1
     2     2     3   ar
     3     3     4   ar
     4     4     5   ar
     5     5    23    1
     6    23    24    3
     7     5     6   ar
     8     6     7   ar
     9     7     8   ar
    10     8     9   ar
    11     9    10   ar
    12    10    11    1
    13    11    12   ar
    14    12    13   ar
    15    13    14   ar
    16    14    16    1
    17    16    17    2
    18    16    18   am
    19    18    20    1
    20    20    21    1
    21    21    22    1
    22    14    15   ar
    23    10     2   ar
    24    15    11   ar
    25     9     4   ar
    26    22    20    1
    27    18    19    1
