@<TRIPOS>MOLECULE
*****
 29 32 0 0 0
SMALL
GASTEIGER

@<TRIPOS>ATOM
      1 O         142.8833  143.4694  171.0456 O.2     1  UNL1       -0.2817
      2 C         141.8626  142.5032  170.5211 C.2     1  UNL1        0.2498
      3 C         141.9166  141.2213  169.7443 C.2     1  UNL1        0.1045
      4 C         140.4193  141.1370  169.7794 C.2     1  UNL1        0.1076
      5 C         140.3654  142.4190  170.5563 C.2     1  UNL1        0.2500
      6 O         139.2686  143.2659  171.1305 O.2     1  UNL1       -0.2817
      7 N         143.0134  140.3743  169.1700 N.pl3   1  UNL1       -0.3242
      8 H         143.9492  140.5403  169.4269 H       1  UNL1        0.1473
      9 C         142.6844  139.2746  168.2045 C.3     1  UNL1        0.1338
     10 C         142.7345  139.5332  166.7277 C.ar    1  UNL1        0.0788
     11 C         142.3314  138.4570  165.7638 C.ar    1  UNL1        0.0165
     12 C         142.3815  138.7156  164.2871 C.ar    1  UNL1        0.0029
     13 C         142.8346  140.0505  163.7744 C.ar    1  UNL1        0.0207
     14 C         143.2377  141.1267  164.7383 C.ar    1  UNL1        0.0985
     15 N         143.1876  140.8681  166.2150 N.ar    1  UNL1       -0.2464
     16 N         139.3988  140.1709  169.2549 N.pl3   1  UNL1       -0.3089
     17 H         138.8661  139.6294  169.8812 H       1  UNL1        0.1523
     18 C         139.1899  140.0298  167.7762 C.ar    1  UNL1        0.0485
     19 C         138.4751  138.8291  167.2310 C.ar    1  UNL1        0.0159
     20 C         138.2662  138.6880  165.7524 C.ar    1  UNL1        0.0158
     21 C         138.7721  139.7475  164.8190 C.ar    1  UNL1        0.0481
     22 C         139.4870  140.9482  165.3642 C.ar    1  UNL1        0.0158
     23 C         139.6959  141.0894  166.8428 C.ar    1  UNL1        0.0159
     24 N         138.5633  139.6064  163.3402 N.pl3   1  UNL1       -0.3028
     25 C         137.9041  140.7101  162.5672 C.3     1  UNL1        0.1231
     26 C         137.6952  140.5690  161.0886 C.3     1  UNL1        0.1636
     27 O         138.1455  139.3243  160.3829 O.3     1  UNL1       -0.3501
     28 C         138.8046  138.2206  161.1559 C.3     1  UNL1        0.1636
     29 C         139.0135  138.3617  162.6346 C.3     1  UNL1        0.1231
@<TRIPOS>BOND
     1     1     2    2
     2     2     3    1
     3     3     7    1
     4     7     9    1
     5     9    10    1
     6    10    11   ar
     7    11    12   ar
     8    12    13   ar
     9    13    14   ar
    10    14    15   ar
    11     3     4    2
    12     4    16    1
    13    16    18    1
    14    18    19   ar
    15    19    20   ar
    16    20    21   ar
    17    21    24    1
    18    24    25    1
    19    25    26    1
    20    26    27    1
    21    27    28    1
    22    28    29    1
    23    21    22   ar
    24    22    23   ar
    25     4     5    1
    26     5     6    2
    27     5     2    1
    28    15    10   ar
    29    23    18   ar
    30    29    24    1
    31     7     8    1
    32    16    17    1
@<TRIPOS>MOLECULE
*****
 29 32 0 0 0
SMALL
GASTEIGER

@<TRIPOS>ATOM
      1 O         139.1730  143.6652  159.6926 O.2     1  UNL1       -0.2817
      2 C         138.6950  142.8199  160.8359 C.2     1  UNL1        0.2498
      3 C         138.7506  141.3588  161.1703 C.2     1  UNL1        0.1045
      4 C         138.0191  141.6244  162.4526 C.2     1  UNL1        0.1076
      5 C         137.9635  143.0856  162.1182 C.2     1  UNL1        0.2500
      6 O         137.4070  144.3066  162.7885 O.2     1  UNL1       -0.2817
      7 N         139.3071  140.1376  160.5000 N.pl3   1  UNL1       -0.3242
      8 H         139.6564  140.1963  159.5814 H       1  UNL1        0.1473
      9 C         139.3315  138.8271  161.2293 C.3     1  UNL1        0.1338
     10 C         140.1651  138.6729  162.4668 C.ar    1  UNL1        0.0788
     11 C         139.9719  137.4817  163.3576 C.ar    1  UNL1        0.0165
     12 C         140.8055  137.3275  164.5951 C.ar    1  UNL1        0.0029
     13 C         141.8324  138.3645  164.9417 C.ar    1  UNL1        0.0207
     14 C         142.0256  139.5557  164.0508 C.ar    1  UNL1        0.0985
     15 N         141.1920  139.7099  162.8134 N.ar    1  UNL1       -0.2464
     16 N         137.5412  140.7791  163.5958 N.pl3   1  UNL1       -0.3089
     17 H         136.7166  140.2489  163.5049 H       1  UNL1        0.1523
     18 C         138.3196  140.7414  164.8775 C.ar    1  UNL1        0.0485
     19 C         139.2776  141.8480  165.2059 C.ar    1  UNL1        0.0159
     20 C         140.0560  141.8104  166.4875 C.ar    1  UNL1        0.0158
     21 C         139.8764  140.6663  167.4408 C.ar    1  UNL1        0.0481
     22 C         138.9183  139.5598  167.1124 C.ar    1  UNL1        0.0158
     23 C         138.1400  139.5974  165.8308 C.ar    1  UNL1        0.0159
     24 N         140.6548  140.6287  168.7225 N.pl3   1  UNL1       -0.3028
     25 C         141.8871  139.7799  168.8269 C.3     1  UNL1        0.1231
     26 C         142.6655  139.7422  170.1085 C.3     1  UNL1        0.1636
     27 O         142.2116  140.5534  171.2859 O.3     1  UNL1       -0.3501
     28 C         140.9792  141.4022  171.1815 C.3     1  UNL1        0.1636
     29 C         140.2008  141.4398  169.8997 C.3     1  UNL1        0.1231
@<TRIPOS>BOND
     1     1     2    2
     2     2     3    1
     3     3     7    1
     4     7     9    1
     5     9    10    1
     6    10    11   ar
     7    11    12   ar
     8    12    13   ar
     9    13    14   ar
    10    14    15   ar
    11     3     4    2
    12     4    16    1
    13    16    18    1
    14    18    19   ar
    15    19    20   ar
    16    20    21   ar
    17    21    24    1
    18    24    25    1
    19    25    26    1
    20    26    27    1
    21    27    28    1
    22    28    29    1
    23    21    22   ar
    24    22    23   ar
    25     4     5    1
    26     5     6    2
    27     5     2    1
    28    15    10   ar
    29    23    18   ar
    30    29    24    1
    31     7     8    1
    32    16    17    1
@<TRIPOS>MOLECULE
*****
 29 32 0 0 0
SMALL
GASTEIGER

@<TRIPOS>ATOM
      1 O         140.1716  139.7574  159.4825 O.2     1  UNL1       -0.2817
      2 C         139.7604  139.2150  160.8192 C.2     1  UNL1        0.2498
      3 C         138.6444  139.4975  161.7807 C.2     1  UNL1        0.1045
      4 C         139.1789  138.4479  162.7095 C.2     1  UNL1        0.1076
      5 C         140.2950  138.1653  161.7479 C.2     1  UNL1        0.2500
      6 O         141.4621  137.2234  161.7248 O.2     1  UNL1       -0.2817
      7 N         137.4773  140.4394  161.8039 N.pl3   1  UNL1       -0.3242
      8 H         136.9576  140.5997  160.9832 H       1  UNL1        0.1473
      9 C         137.1018  141.1372  163.0775 C.3     1  UNL1        0.1338
     10 C         137.9071  142.3087  163.5563 C.ar    1  UNL1        0.0788
     11 C         138.6700  142.2181  164.8446 C.ar    1  UNL1        0.0165
     12 C         139.4752  143.3896  165.3234 C.ar    1  UNL1        0.0029
     13 C         139.5174  144.6517  164.5139 C.ar    1  UNL1        0.0207
     14 C         138.7544  144.7424  163.2257 C.ar    1  UNL1        0.0985
     15 N         137.9493  143.5709  162.7469 N.ar    1  UNL1       -0.2464
     16 N         138.7677  137.9055  164.0461 N.pl3   1  UNL1       -0.3089
     17 H         138.2141  137.0931  164.0986 H       1  UNL1        0.1523
     18 C         139.2000  138.6009  165.3030 C.ar    1  UNL1        0.0485
     19 C         140.6209  139.0563  165.4574 C.ar    1  UNL1        0.0159
     20 C         141.0532  139.7516  166.7142 C.ar    1  UNL1        0.0158
     21 C         140.0647  139.9916  167.8165 C.ar    1  UNL1        0.0481
     22 C         138.6439  139.5363  167.6621 C.ar    1  UNL1        0.0158
     23 C         138.2115  138.8409  166.4053 C.ar    1  UNL1        0.0159
     24 N         140.4970  140.6870  169.0734 N.pl3   1  UNL1       -0.3028
     25 C         141.6311  140.1339  169.8845 C.3     1  UNL1        0.1231
     26 C         142.0634  140.8292  171.1412 C.3     1  UNL1        0.1636
     27 O         141.3616  142.0778  171.5870 O.3     1  UNL1       -0.3501
     28 C         140.2275  142.6310  170.7759 C.3     1  UNL1        0.1636
     29 C         139.7952  141.9356  169.5191 C.3     1  UNL1        0.1231
@<TRIPOS>BOND
     1     1     2    2
     2     2     3    1
     3     3     7    1
     4     7     9    1
     5     9    10    1
     6    10    11   ar
     7    11    12   ar
     8    12    13   ar
     9    13    14   ar
    10    14    15   ar
    11     3     4    2
    12     4    16    1
    13    16    18    1
    14    18    19   ar
    15    19    20   ar
    16    20    21   ar
    17    21    24    1
    18    24    25    1
    19    25    26    1
    20    26    27    1
    21    27    28    1
    22    28    29    1
    23    21    22   ar
    24    22    23   ar
    25     4     5    1
    26     5     6    2
    27     5     2    1
    28    15    10   ar
    29    23    18   ar
    30    29    24    1
    31     7     8    1
    32    16    17    1
@<TRIPOS>MOLECULE
*****
 29 32 0 0 0
SMALL
GASTEIGER

@<TRIPOS>ATOM
      1 O         140.3551  142.1336  172.2391 O.2     1  UNL1       -0.2817
      2 C         141.1186  141.9581  170.9598 C.2     1  UNL1        0.2498
      3 C         141.0426  141.0087  169.8011 C.2     1  UNL1        0.1045
      4 C         142.1981  141.7099  169.1507 C.2     1  UNL1        0.1076
      5 C         142.2741  142.6594  170.3095 C.2     1  UNL1        0.2500
      6 O         143.1450  143.8266  170.6690 O.2     1  UNL1       -0.2817
      7 N         140.1717  139.8415  169.4416 N.pl3   1  UNL1       -0.3242
      8 H         140.2581  138.9929  169.9332 H       1  UNL1        0.1473
      9 C         139.1691  139.9671  168.3330 C.3     1  UNL1        0.1338
     10 C         139.5569  139.6144  166.9275 C.ar    1  UNL1        0.0788
     11 C         138.5350  139.6705  165.8310 C.ar    1  UNL1        0.0165
     12 C         138.9228  139.3178  164.4256 C.ar    1  UNL1        0.0029
     13 C         140.3326  138.9089  164.1167 C.ar    1  UNL1        0.0207
     14 C         141.3545  138.8528  165.2132 C.ar    1  UNL1        0.0985
     15 N         140.9667  139.2056  166.6186 N.ar    1  UNL1       -0.2464
     16 N         142.9615  141.5344  167.8715 N.pl3   1  UNL1       -0.3089
     17 H         143.7552  140.9525  167.8478 H       1  UNL1        0.1523
     18 C         142.5154  142.2456  166.6283 C.ar    1  UNL1        0.0485
     19 C         143.4964  142.5161  165.5263 C.ar    1  UNL1        0.0159
     20 C         143.0504  143.2272  164.2831 C.ar    1  UNL1        0.0158
     21 C         141.6236  143.6678  164.1421 C.ar    1  UNL1        0.0481
     22 C         140.6426  143.3972  165.2442 C.ar    1  UNL1        0.0158
     23 C         141.0886  142.6861  166.4873 C.ar    1  UNL1        0.0159
     24 N         141.1776  144.3789  162.8989 N.pl3   1  UNL1       -0.3028
     25 C         141.8435  144.0855  161.5872 C.3     1  UNL1        0.1231
     26 C         141.3976  144.7966  160.3441 C.3     1  UNL1        0.1636
     27 O         140.2856  145.8011  160.4126 O.3     1  UNL1       -0.3501
     28 C         139.6197  146.0945  161.7242 C.3     1  UNL1        0.1636
     29 C         140.0657  145.3833  162.9674 C.3     1  UNL1        0.1231
@<TRIPOS>BOND
     1     1     2    2
     2     2     3    1
     3     3     7    1
     4     7     9    1
     5     9    10    1
     6    10    11   ar
     7    11    12   ar
     8    12    13   ar
     9    13    14   ar
    10    14    15   ar
    11     3     4    2
    12     4    16    1
    13    16    18    1
    14    18    19   ar
    15    19    20   ar
    16    20    21   ar
    17    21    24    1
    18    24    25    1
    19    25    26    1
    20    26    27    1
    21    27    28    1
    22    28    29    1
    23    21    22   ar
    24    22    23   ar
    25     4     5    1
    26     5     6    2
    27     5     2    1
    28    15    10   ar
    29    23    18   ar
    30    29    24    1
    31     7     8    1
    32    16    17    1
@<TRIPOS>MOLECULE
*****
 29 32 0 0 0
SMALL
GASTEIGER

@<TRIPOS>ATOM
      1 O         139.5299  146.6394  160.9726 O.2     1  UNL1       -0.2817
      2 C         139.9151  145.2892  161.5007 C.2     1  UNL1        0.2498
      3 C         141.2119  144.5998  161.8049 C.2     1  UNL1        0.1045
      4 C         140.4597  143.3799  162.2475 C.2     1  UNL1        0.1076
      5 C         139.1627  144.0693  161.9433 C.2     1  UNL1        0.2500
      6 O         137.7137  143.6942  162.0411 O.2     1  UNL1       -0.2817
      7 N         142.6610  144.9749  161.7071 N.pl3   1  UNL1       -0.3242
      8 H         142.9918  145.4595  160.9165 H       1  UNL1        0.1473
      9 C         143.6061  144.6117  162.8138 C.3     1  UNL1        0.1338
     10 C         144.0552  143.1901  162.9802 C.ar    1  UNL1        0.0788
     11 C         144.6447  142.7375  164.2831 C.ar    1  UNL1        0.0165
     12 C         145.0938  141.3160  164.4495 C.ar    1  UNL1        0.0029
     13 C         144.9534  140.3472  163.3130 C.ar    1  UNL1        0.0207
     14 C         144.3639  140.7998  162.0101 C.ar    1  UNL1        0.0985
     15 N         143.9148  142.2213  161.8437 N.ar    1  UNL1       -0.2464
     16 N         140.8448  142.0298  162.7756 N.pl3   1  UNL1       -0.3089
     17 H         140.9798  141.2784  162.1541 H       1  UNL1        0.1523
     18 C         141.0242  141.8247  164.2507 C.ar    1  UNL1        0.0485
     19 C         141.4844  140.4958  164.7725 C.ar    1  UNL1        0.0159
     20 C         141.6639  140.2906  166.2475 C.ar    1  UNL1        0.0158
     21 C         141.3831  141.4143  167.2007 C.ar    1  UNL1        0.0481
     22 C         140.9229  142.7431  166.6788 C.ar    1  UNL1        0.0158
     23 C         140.7435  142.9483  165.2038 C.ar    1  UNL1        0.0159
     24 N         141.5625  141.2091  168.6757 N.pl3   1  UNL1       -0.3028
     25 C         140.6560  141.9071  169.6458 C.3     1  UNL1        0.1231
     26 C         140.8354  141.7020  171.1208 C.3     1  UNL1        0.1636
     27 O         141.9214  140.7988  171.6258 O.3     1  UNL1       -0.3501
     28 C         142.8279  140.1008  170.6558 C.3     1  UNL1        0.1636
     29 C         142.6485  140.3060  169.1807 C.3     1  UNL1        0.1231
@<TRIPOS>BOND
     1     1     2    2
     2     2     3    1
     3     3     7    1
     4     7     9    1
     5     9    10    1
     6    10    11   ar
     7    11    12   ar
     8    12    13   ar
     9    13    14   ar
    10    14    15   ar
    11     3     4    2
    12     4    16    1
    13    16    18    1
    14    18    19   ar
    15    19    20   ar
    16    20    21   ar
    17    21    24    1
    18    24    25    1
    19    25    26    1
    20    26    27    1
    21    27    28    1
    22    28    29    1
    23    21    22   ar
    24    22    23   ar
    25     4     5    1
    26     5     6    2
    27     5     2    1
    28    15    10   ar
    29    23    18   ar
    30    29    24    1
    31     7     8    1
    32    16    17    1
@<TRIPOS>MOLECULE
*****
 29 32 0 0 0
SMALL
GASTEIGER

@<TRIPOS>ATOM
      1 O         139.6966  144.7935  159.7535 O.2     1  UNL1       -0.2817
      2 C         140.2562  143.7413  160.6644 C.2     1  UNL1        0.2498
      3 C         139.6992  142.5339  161.3584 C.2     1  UNL1        0.1045
      4 C         141.0476  142.2533  161.9527 C.2     1  UNL1        0.1076
      5 C         141.6047  143.4608  161.2587 C.2     1  UNL1        0.2500
      6 O         142.9520  144.1163  161.1882 O.2     1  UNL1       -0.2817
      7 N         138.3518  141.8783  161.4289 N.pl3   1  UNL1       -0.3242
      8 H         137.8725  141.6478  160.6004 H       1  UNL1        0.1473
      9 C         137.7346  141.5741  162.7618 C.3     1  UNL1        0.1338
     10 C         138.1630  140.3567  163.5263 C.ar    1  UNL1        0.0788
     11 C         137.9615  140.2943  165.0114 C.ar    1  UNL1        0.0165
     12 C         138.3899  139.0770  165.7759 C.ar    1  UNL1        0.0029
     13 C         139.0199  137.9220  165.0553 C.ar    1  UNL1        0.0207
     14 C         139.2214  137.9844  163.5702 C.ar    1  UNL1        0.0985
     15 N         138.7930  139.2017  162.8058 N.ar    1  UNL1       -0.2464
     16 N         141.6071  141.2012  162.8636 N.pl3   1  UNL1       -0.3089
     17 H         142.0719  140.4197  162.4861 H       1  UNL1        0.1523
     18 C         141.4584  141.3396  164.3498 C.ar    1  UNL1        0.0485
     19 C         141.9069  140.2307  165.2549 C.ar    1  UNL1        0.0159
     20 C         141.7582  140.3690  166.7411 C.ar    1  UNL1        0.0158
     21 C         141.1611  141.6163  167.3222 C.ar    1  UNL1        0.0481
     22 C         140.7126  142.7252  166.4171 C.ar    1  UNL1        0.0158
     23 C         140.8613  142.5869  164.9309 C.ar    1  UNL1        0.0159
     24 N         141.0124  141.7547  168.8084 N.pl3   1  UNL1       -0.3028
     25 C         141.7492  140.8243  169.7257 C.3     1  UNL1        0.1231
     26 C         141.6005  140.9626  171.2119 C.3     1  UNL1        0.1636
     27 O         140.7151  142.0315  171.7808 O.3     1  UNL1       -0.3501
     28 C         139.9783  142.9620  170.8635 C.3     1  UNL1        0.1636
     29 C         140.1270  142.8235  169.3772 C.3     1  UNL1        0.1231
@<TRIPOS>BOND
     1     1     2    2
     2     2     3    1
     3     3     7    1
     4     7     9    1
     5     9    10    1
     6    10    11   ar
     7    11    12   ar
     8    12    13   ar
     9    13    14   ar
    10    14    15   ar
    11     3     4    2
    12     4    16    1
    13    16    18    1
    14    18    19   ar
    15    19    20   ar
    16    20    21   ar
    17    21    24    1
    18    24    25    1
    19    25    26    1
    20    26    27    1
    21    27    28    1
    22    28    29    1
    23    21    22   ar
    24    22    23   ar
    25     4     5    1
    26     5     6    2
    27     5     2    1
    28    15    10   ar
    29    23    18   ar
    30    29    24    1
    31     7     8    1
    32    16    17    1
@<TRIPOS>MOLECULE
*****
 29 32 0 0 0
SMALL
GASTEIGER

@<TRIPOS>ATOM
      1 O         139.6751  143.5679  158.4240 O.2     1  UNL1       -0.2817
      2 C         140.5672  143.9807  159.5570 C.2     1  UNL1        0.2498
      3 C         141.9119  143.5469  160.0604 C.2     1  UNL1        0.1045
      4 C         141.8289  144.5645  161.1593 C.2     1  UNL1        0.1076
      5 C         140.4841  144.9984  160.6559 C.2     1  UNL1        0.2500
      6 O         139.4745  146.0247  161.0770 O.2     1  UNL1       -0.2817
      7 N         142.9216  142.5206  159.6393 N.pl3   1  UNL1       -0.3242
      8 H         142.7141  141.8981  158.9053 H       1  UNL1        0.1473
      9 C         144.2474  142.4427  160.3365 C.3     1  UNL1        0.1338
     10 C         144.3906  141.6259  161.5865 C.ar    1  UNL1        0.0788
     11 C         143.3478  140.6075  161.9406 C.ar    1  UNL1        0.0165
     12 C         143.4911  139.7908  163.1905 C.ar    1  UNL1        0.0029
     13 C         144.6772  139.9924  164.0863 C.ar    1  UNL1        0.0207
     14 C         145.7200  141.0107  163.7322 C.ar    1  UNL1        0.0985
     15 N         145.5767  141.8275  162.4823 N.ar    1  UNL1       -0.2464
     16 N         142.7210  144.9773  162.2922 N.pl3   1  UNL1       -0.3089
     17 H         143.2736  145.7883  162.2133 H       1  UNL1        0.1523
     18 C         142.7713  144.1545  163.5455 C.ar    1  UNL1        0.0485
     19 C         143.9638  144.2399  164.4514 C.ar    1  UNL1        0.0159
     20 C         144.0140  143.4172  165.7046 C.ar    1  UNL1        0.0158
     21 C         142.8719  142.5090  166.0518 C.ar    1  UNL1        0.0481
     22 C         141.6794  142.4235  165.1458 C.ar    1  UNL1        0.0158
     23 C         141.6292  143.2463  163.8927 C.ar    1  UNL1        0.0159
     24 N         142.9222  141.6861  167.3050 N.pl3   1  UNL1       -0.3028
     25 C         142.5970  140.2226  167.2549 C.3     1  UNL1        0.1231
     26 C         142.6473  139.3998  168.5080 C.3     1  UNL1        0.1636
     27 O         143.0226  140.0405  169.8114 O.3     1  UNL1       -0.3501
     28 C         143.3478  141.5040  169.8616 C.3     1  UNL1        0.1636
     29 C         143.2975  142.3268  168.6083 C.3     1  UNL1        0.1231
@<TRIPOS>BOND
     1     1     2    2
     2     2     3    1
     3     3     7    1
     4     7     9    1
     5     9    10    1
     6    10    11   ar
     7    11    12   ar
     8    12    13   ar
     9    13    14   ar
    10    14    15   ar
    11     3     4    2
    12     4    16    1
    13    16    18    1
    14    18    19   ar
    15    19    20   ar
    16    20    21   ar
    17    21    24    1
    18    24    25    1
    19    25    26    1
    20    26    27    1
    21    27    28    1
    22    28    29    1
    23    21    22   ar
    24    22    23   ar
    25     4     5    1
    26     5     6    2
    27     5     2    1
    28    15    10   ar
    29    23    18   ar
    30    29    24    1
    31     7     8    1
    32    16    17    1
@<TRIPOS>MOLECULE
*****
 29 32 0 0 0
SMALL
GASTEIGER

@<TRIPOS>ATOM
      1 O         141.5000  140.9287  171.6777 O.2     1  UNL1       -0.2817
      2 C         140.8440  140.6138  170.3659 C.2     1  UNL1        0.2498
      3 C         141.3336  140.3112  168.9809 C.2     1  UNL1        0.1045
      4 C         139.9163  140.1686  168.5110 C.2     1  UNL1        0.1076
      5 C         139.4266  140.4713  169.8961 C.2     1  UNL1        0.2500
      6 O         138.0782  140.5845  170.5432 O.2     1  UNL1       -0.2817
      7 N         142.6821  140.1979  168.3337 N.pl3   1  UNL1       -0.3242
      8 H         143.3780  140.8673  168.5256 H       1  UNL1        0.1473
      9 C         142.9703  139.0648  167.3940 C.3     1  UNL1        0.1338
     10 C         142.6391  139.1961  165.9369 C.ar    1  UNL1        0.0788
     11 C         143.0642  140.4183  165.1783 C.ar    1  UNL1        0.0165
     12 C         142.7330  140.5495  163.7212 C.ar    1  UNL1        0.0029
     13 C         141.9767  139.4585  163.0228 C.ar    1  UNL1        0.0207
     14 C         141.5516  138.2363  163.7814 C.ar    1  UNL1        0.0985
     15 N         141.8828  138.1051  165.2384 N.ar    1  UNL1       -0.2464
     16 N         139.2603  139.8538  167.1993 N.pl3   1  UNL1       -0.3089
     17 H         138.7642  139.0109  167.0868 H       1  UNL1        0.1523
     18 C         139.3603  140.8232  166.0589 C.ar    1  UNL1        0.0485
     19 C         138.7392  140.4901  164.7348 C.ar    1  UNL1        0.0159
     20 C         138.8391  141.4595  163.5945 C.ar    1  UNL1        0.0158
     21 C         139.5601  142.7619  163.7783 C.ar    1  UNL1        0.0481
     22 C         140.1811  143.0950  165.1025 C.ar    1  UNL1        0.0158
     23 C         140.0812  142.1257  166.2428 C.ar    1  UNL1        0.0159
     24 N         139.6600  143.7314  162.6380 N.pl3   1  UNL1       -0.3028
     25 C         139.8608  143.2265  161.2398 C.3     1  UNL1        0.1231
     26 C         139.9607  144.1959  160.0995 C.3     1  UNL1        0.1636
     27 O         139.8598  145.6701  160.3573 O.3     1  UNL1       -0.3501
     28 C         139.6590  146.1750  161.7555 C.3     1  UNL1        0.1636
     29 C         139.5591  145.2056  162.8958 C.3     1  UNL1        0.1231
@<TRIPOS>BOND
     1     1     2    2
     2     2     3    1
     3     3     7    1
     4     7     9    1
     5     9    10    1
     6    10    11   ar
     7    11    12   ar
     8    12    13   ar
     9    13    14   ar
    10    14    15   ar
    11     3     4    2
    12     4    16    1
    13    16    18    1
    14    18    19   ar
    15    19    20   ar
    16    20    21   ar
    17    21    24    1
    18    24    25    1
    19    25    26    1
    20    26    27    1
    21    27    28    1
    22    28    29    1
    23    21    22   ar
    24    22    23   ar
    25     4     5    1
    26     5     6    2
    27     5     2    1
    28    15    10   ar
    29    23    18   ar
    30    29    24    1
    31     7     8    1
    32    16    17    1
@<TRIPOS>MOLECULE
*****
 29 32 0 0 0
SMALL
GASTEIGER

@<TRIPOS>ATOM
      1 O         145.2000  142.8367  160.0278 O.2     1  UNL1       -0.2817
      2 C         143.9126  142.4311  160.6821 C.2     1  UNL1        0.2498
      3 C         142.7505  143.1654  161.2822 C.2     1  UNL1        0.1045
      4 C         142.0920  141.8575  161.6075 C.2     1  UNL1        0.1076
      5 C         143.2541  141.1231  161.0073 C.2     1  UNL1        0.2500
      6 O         143.6102  139.6791  160.8129 O.2     1  UNL1       -0.2817
      7 N         142.3944  144.6095  161.4767 N.pl3   1  UNL1       -0.3242
      8 H         143.0916  145.2597  161.7225 H       1  UNL1        0.1473
      9 C         140.9760  145.0630  161.2966 C.3     1  UNL1        0.1338
     10 C         139.9489  144.7471  162.3433 C.ar    1  UNL1        0.0788
     11 C         140.1843  145.1468  163.7697 C.ar    1  UNL1        0.0165
     12 C         139.1573  144.8310  164.8164 C.ar    1  UNL1        0.0029
     13 C         137.8949  144.1154  164.4365 C.ar    1  UNL1        0.0207
     14 C         137.6595  143.7157  163.0101 C.ar    1  UNL1        0.0985
     15 N         138.6865  144.0315  161.9635 N.ar    1  UNL1       -0.2464
     16 N         140.8046  141.4520  162.2618 N.pl3   1  UNL1       -0.3089
     17 H         140.0351  141.1832  161.7096 H       1  UNL1        0.1523
     18 C         140.6897  141.4559  163.7574 C.ar    1  UNL1        0.0485
     19 C         139.4980  140.8302  164.4196 C.ar    1  UNL1        0.0159
     20 C         139.3830  140.8341  165.9152 C.ar    1  UNL1        0.0158
     21 C         140.4597  141.4636  166.7485 C.ar    1  UNL1        0.0481
     22 C         141.6513  142.0893  166.0863 C.ar    1  UNL1        0.0158
     23 C         141.7663  142.0854  164.5907 C.ar    1  UNL1        0.0159
     24 N         140.3447  141.4675  168.2441 N.pl3   1  UNL1       -0.3028
     25 C         140.3890  142.7646  168.9964 C.3     1  UNL1        0.1231
     26 C         140.2741  142.7685  170.4919 C.3     1  UNL1        0.1636
     27 O         140.1148  141.4754  171.2353 O.3     1  UNL1       -0.3501
     28 C         140.0704  140.1784  170.4831 C.3     1  UNL1        0.1636
     29 C         140.1854  140.1745  168.9875 C.3     1  UNL1        0.1231
@<TRIPOS>BOND
     1     1     2    2
     2     2     3    1
     3     3     7    1
     4     7     9    1
     5     9    10    1
     6    10    11   ar
     7    11    12   ar
     8    12    13   ar
     9    13    14   ar
    10    14    15   ar
    11     3     4    2
    12     4    16    1
    13    16    18    1
    14    18    19   ar
    15    19    20   ar
    16    20    21   ar
    17    21    24    1
    18    24    25    1
    19    25    26    1
    20    26    27    1
    21    27    28    1
    22    28    29    1
    23    21    22   ar
    24    22    23   ar
    25     4     5    1
    26     5     6    2
    27     5     2    1
    28    15    10   ar
    29    23    18   ar
    30    29    24    1
    31     7     8    1
    32    16    17    1
