@<TRIPOS>MOLECULE
*****
 21 22 0 0 0
SMALL
GASTEIGER

@<TRIPOS>ATOM
      1 N         142.2087  139.7835  167.0818 N.am    1  UNL1       -0.2763
      2 C         142.9468  138.6971  166.3574 C.2     1  UNL1        0.2499
      3 O         144.0504  137.9513  167.0474 O.2     1  UNL1       -0.2699
      4 C         142.5814  138.3564  164.9430 C.ar    1  UNL1        0.0650
      5 C         141.3617  137.5297  164.6619 C.ar    1  UNL1        0.0054
      6 C         140.9963  137.1890  163.2475 C.ar    1  UNL1        0.0011
      7 C         141.8506  137.6750  162.1143 C.ar    1  UNL1        0.0123
      8 C         143.0703  138.5016  162.3955 C.ar    1  UNL1        0.0683
      9 CL        143.9246  138.9875  161.2623 Cl      1  UNL1       -0.0814
     10 C         143.4357  138.8423  163.8099 C.ar    1  UNL1        0.0725
     11 CL        144.6554  139.6689  164.0910 Cl      1  UNL1       -0.0812
     12 C         142.5741  140.1242  168.4962 C.3     1  UNL1        0.0927
     13 C         142.4449  139.2165  169.6833 C.3     1  UNL1        0.0383
     14 C         142.9238  139.9637  170.8926 C.3     1  UNL1        0.0704
     15 N         143.3490  141.3333  170.4528 N.3     1  UNL1       -0.2960
     16 C         143.1329  141.4325  168.9717 C.3     1  UNL1        0.0887
     17 H         144.3357  141.4755  170.6689 H       1  UNL1        0.1233
     18 C         141.1051  140.5293  166.3918 C.3     1  UNL1        0.0936
     19 C         138.7308  140.0264  165.4647 C.3     1  UNL1        0.0018
     20 C         139.6759  140.1378  166.6242 C.3     1  UNL1        0.0199
     21 C         139.1917  139.8578  168.0160 C.3     1  UNL1        0.0018
@<TRIPOS>BOND
     1    19    20    1
     2    20    21    1
     3    20    18    1
     4    18     1    1
     5     1     2   am
     6     2     3    2
     7     2     4    1
     8     4     5   ar
     9     5     6   ar
    10     6     7   ar
    11     7     8   ar
    12     8     9    1
    13     8    10   ar
    14    10    11    1
    15    12     1    1
    16    12    13    1
    17    13    14    1
    18    14    15    1
    19    15    16    1
    20    10     4   ar
    21    16    12    1
    22    15    17    1
@<TRIPOS>MOLECULE
*****
 21 22 0 0 0
SMALL
GASTEIGER

@<TRIPOS>ATOM
      1 N         140.4493  140.1106  167.3130 N.am    1  UNL1       -0.2763
      2 C         139.1743  139.4343  166.9047 C.2     1  UNL1        0.2499
      3 O         138.1498  139.0769  167.9406 O.2     1  UNL1       -0.2699
      4 C         138.9236  139.1152  165.4606 C.ar    1  UNL1        0.0650
      5 C         139.1765  137.7299  164.9438 C.ar    1  UNL1        0.0054
      6 C         138.9258  137.4108  163.4997 C.ar    1  UNL1        0.0011
      7 C         138.4222  138.4771  162.5725 C.ar    1  UNL1        0.0123
      8 C         138.1694  139.8623  163.0894 C.ar    1  UNL1        0.0683
      9 CL        137.6658  140.9285  162.1622 Cl      1  UNL1       -0.0814
     10 C         138.4201  140.1814  164.5335 C.ar    1  UNL1        0.0725
     11 CL        138.1672  141.5667  165.0503 Cl      1  UNL1       -0.0812
     12 C         140.7000  140.4297  168.7571 C.3     1  UNL1        0.0927
     13 C         140.2100  141.6433  169.4898 C.3     1  UNL1        0.0383
     14 C         140.6919  141.5548  170.9076 C.3     1  UNL1        0.0704
     15 N         141.4797  140.2865  171.0510 N.3     1  UNL1       -0.2960
     16 C         141.4847  139.5911  169.7219 C.3     1  UNL1        0.0887
     17 H         141.0463  139.6873  171.7535 H       1  UNL1        0.1233
     18 C         141.4738  140.4679  166.2771 C.3     1  UNL1        0.0936
     19 C         143.2540  138.6223  166.6945 C.3     1  UNL1        0.0018
     20 C         142.4036  139.4166  165.7480 C.3     1  UNL1        0.0199
     21 C         142.4831  139.1595  164.2723 C.3     1  UNL1        0.0018
@<TRIPOS>BOND
     1    19    20    1
     2    20    21    1
     3    20    18    1
     4    18     1    1
     5     1     2   am
     6     2     3    2
     7     2     4    1
     8     4     5   ar
     9     5     6   ar
    10     6     7   ar
    11     7     8   ar
    12     8     9    1
    13     8    10   ar
    14    10    11    1
    15    12     1    1
    16    12    13    1
    17    13    14    1
    18    14    15    1
    19    15    16    1
    20    10     4   ar
    21    16    12    1
    22    15    17    1
@<TRIPOS>MOLECULE
*****
 21 22 0 0 0
SMALL
GASTEIGER

@<TRIPOS>ATOM
      1 N         140.7194  140.1383  167.0058 N.am    1  UNL1       -0.2763
      2 C         139.3089  139.7453  166.6801 C.2     1  UNL1        0.2499
      3 O         138.4237  139.1745  167.7482 O.2     1  UNL1       -0.2699
      4 C         138.7835  139.9230  165.2864 C.ar    1  UNL1        0.0650
      5 C         138.1569  141.2243  164.8814 C.ar    1  UNL1        0.0054
      6 C         137.6315  141.4021  163.4877 C.ar    1  UNL1        0.0011
      7 C         137.7328  140.2784  162.4990 C.ar    1  UNL1        0.0123
      8 C         138.3594  138.9772  162.9041 C.ar    1  UNL1        0.0683
      9 CL        138.4606  137.8536  161.9155 Cl      1  UNL1       -0.0814
     10 C         138.8848  138.7995  164.2978 C.ar    1  UNL1        0.0725
     11 CL        139.5114  137.4982  164.7029 Cl      1  UNL1       -0.0812
     12 C         141.2448  139.9606  168.3995 C.3     1  UNL1        0.0927
     13 C         142.4994  139.2333  168.7827 C.3     1  UNL1        0.0383
     14 C         142.6378  139.3022  170.2747 C.3     1  UNL1        0.0704
     15 N         141.4687  140.0721  170.8136 N.3     1  UNL1       -0.2960
     16 C         140.6078  140.4791  169.6546 C.3     1  UNL1        0.0887
     17 H         141.7984  140.9013  171.3078 H       1  UNL1        0.1233
     18 C         141.6046  140.7091  165.9376 C.3     1  UNL1        0.0936
     19 C         143.3342  142.5015  166.6761 C.3     1  UNL1        0.0018
     20 C         142.0387  142.1430  166.0104 C.3     1  UNL1        0.0199
     21 C         141.1774  143.2185  165.4175 C.3     1  UNL1        0.0018
@<TRIPOS>BOND
     1    19    20    1
     2    20    21    1
     3    20    18    1
     4    18     1    1
     5     1     2   am
     6     2     3    2
     7     2     4    1
     8     4     5   ar
     9     5     6   ar
    10     6     7   ar
    11     7     8   ar
    12     8     9    1
    13     8    10   ar
    14    10    11    1
    15    12     1    1
    16    12    13    1
    17    13    14    1
    18    14    15    1
    19    15    16    1
    20    10     4   ar
    21    16    12    1
    22    15    17    1
@<TRIPOS>MOLECULE
*****
 21 22 0 0 0
SMALL
GASTEIGER

@<TRIPOS>ATOM
      1 N         140.6491  140.8896  166.8403 N.am    1  UNL1       -0.2763
      2 C         140.3330  142.3545  166.7761 C.2     1  UNL1        0.2499
      3 O         140.4156  143.1947  168.0160 O.2     1  UNL1       -0.2699
      4 C         139.9344  142.9792  165.4719 C.ar    1  UNL1        0.0650
      5 C         138.4833  143.1046  165.1129 C.ar    1  UNL1        0.0054
      6 C         138.0847  143.7293  163.8088 C.ar    1  UNL1        0.0011
      7 C         139.1371  144.2287  162.8637 C.ar    1  UNL1        0.0123
      8 C         140.5880  144.1033  163.2227 C.ar    1  UNL1        0.0683
      9 CL        141.6404  144.6027  162.2776 Cl      1  UNL1       -0.0814
     10 C         140.9867  143.4786  164.5268 C.ar    1  UNL1        0.0725
     11 CL        142.4377  143.3532  164.8858 Cl      1  UNL1       -0.0812
     12 C         141.0478  140.2648  168.1445 C.3     1  UNL1        0.0927
     13 C         142.4137  139.7549  168.4967 C.3     1  UNL1        0.0383
     14 C         142.3606  139.2152  169.8953 C.3     1  UNL1        0.0704
     15 N         140.9618  139.3916  170.4074 N.3     1  UNL1       -0.2960
     16 C         140.1504  140.0403  169.3253 C.3     1  UNL1        0.0887
     17 H         140.9692  139.9847  171.2372 H       1  UNL1        0.1233
     18 C         140.5665  140.0494  165.6004 C.3     1  UNL1        0.0936
     19 C         139.8582  137.6679  164.8411 C.3     1  UNL1        0.0018
     20 C         139.5220  138.9787  165.4881 C.3     1  UNL1        0.0199
     21 C         138.1413  139.2189  166.0228 C.3     1  UNL1        0.0018
@<TRIPOS>BOND
     1    19    20    1
     2    20    21    1
     3    20    18    1
     4    18     1    1
     5     1     2   am
     6     2     3    2
     7     2     4    1
     8     4     5   ar
     9     5     6   ar
    10     6     7   ar
    11     7     8   ar
    12     8     9    1
    13     8    10   ar
    14    10    11    1
    15    12     1    1
    16    12    13    1
    17    13    14    1
    18    14    15    1
    19    15    16    1
    20    10     4   ar
    21    16    12    1
    22    15    17    1
@<TRIPOS>MOLECULE
*****
 21 22 0 0 0
SMALL
GASTEIGER

@<TRIPOS>ATOM
      1 N         141.4522  143.0081  165.2008 N.am    1  UNL1       -0.2763
      2 C         142.0499  141.8846  165.9947 C.2     1  UNL1        0.2499
      3 O         143.3746  141.3055  165.5949 O.2     1  UNL1       -0.2699
      4 C         141.3229  141.3400  167.1885 C.ar    1  UNL1        0.0650
      5 C         140.1088  140.4796  166.9990 C.ar    1  UNL1        0.0054
      6 C         139.3818  139.9351  168.1928 C.ar    1  UNL1        0.0011
      7 C         139.8689  140.2510  169.5759 C.ar    1  UNL1        0.0123
      8 C         141.0829  141.1114  169.7653 C.ar    1  UNL1        0.0683
      9 CL        141.5700  141.4273  171.1484 Cl      1  UNL1       -0.0814
     10 C         141.8099  141.6559  168.5716 C.ar    1  UNL1        0.0725
     11 CL        143.0239  142.5163  168.7610 Cl      1  UNL1       -0.0812
     12 C         142.1792  143.5526  164.0071 C.3     1  UNL1        0.0927
     13 C         142.3161  142.8775  162.6746 C.3     1  UNL1        0.0383
     14 C         143.1184  143.7755  161.7802 C.3     1  UNL1        0.0704
     15 N         143.4774  145.0056  162.5600 N.3     1  UNL1       -0.2960
     16 C         142.8969  144.8678  163.9362 C.3     1  UNL1        0.0887
     17 H         143.0905  145.8309  162.1021 H       1  UNL1        0.1233
     18 C         140.1274  143.5872  165.6006 C.3     1  UNL1        0.0936
     19 C         138.7135  144.7155  163.7358 C.3     1  UNL1        0.0018
     20 C         138.9731  143.5499  164.6436 C.3     1  UNL1        0.0199
     21 C         138.0782  142.3471  164.5943 C.3     1  UNL1        0.0018
@<TRIPOS>BOND
     1    19    20    1
     2    20    21    1
     3    20    18    1
     4    18     1    1
     5     1     2   am
     6     2     3    2
     7     2     4    1
     8     4     5   ar
     9     5     6   ar
    10     6     7   ar
    11     7     8   ar
    12     8     9    1
    13     8    10   ar
    14    10    11    1
    15    12     1    1
    16    12    13    1
    17    13    14    1
    18    14    15    1
    19    15    16    1
    20    10     4   ar
    21    16    12    1
    22    15    17    1
@<TRIPOS>MOLECULE
*****
 21 22 0 0 0
SMALL
GASTEIGER

@<TRIPOS>ATOM
      1 N         141.5011  141.1001  166.7534 N.am    1  UNL1       -0.2763
      2 C         140.4622  140.0197  166.6932 C.2     1  UNL1        0.2499
      3 O         139.5899  139.7508  167.8834 O.2     1  UNL1       -0.2699
      4 C         140.2957  139.2082  165.4426 C.ar    1  UNL1        0.0650
      5 C         141.2451  138.0856  165.1451 C.ar    1  UNL1        0.0054
      6 C         141.0786  137.2741  163.8946 C.ar    1  UNL1        0.0011
      7 C         139.9628  137.5853  162.9416 C.ar    1  UNL1        0.0123
      8 C         139.0135  138.7079  163.2392 C.ar    1  UNL1        0.0683
      9 CL        137.8976  139.0191  162.2862 Cl      1  UNL1       -0.0814
     10 C         139.1800  139.5194  164.4897 C.ar    1  UNL1        0.0725
     11 CL        138.2306  140.6420  164.7872 Cl      1  UNL1       -0.0812
     12 C         141.6676  141.9115  168.0039 C.3     1  UNL1        0.0927
     13 C         142.8704  141.9135  168.9001 C.3     1  UNL1        0.0383
     14 C         142.6067  142.8667  170.0279 C.3     1  UNL1        0.0704
     15 N         141.2408  143.4539  169.8287 N.3     1  UNL1       -0.2960
     16 C         140.6604  142.8635  168.5779 C.3     1  UNL1        0.0887
     17 H         141.3101  144.4670  169.7335 H       1  UNL1        0.1233
     18 C         142.3734  141.3690  165.5631 C.3     1  UNL1        0.0936
     19 C         141.6093  143.6769  164.6469 C.3     1  UNL1        0.0018
     20 C         142.6925  142.7812  165.1708 C.3     1  UNL1        0.0199
     21 C         144.0946  143.2976  165.3024 C.3     1  UNL1        0.0018
@<TRIPOS>BOND
     1    19    20    1
     2    20    21    1
     3    20    18    1
     4    18     1    1
     5     1     2   am
     6     2     3    2
     7     2     4    1
     8     4     5   ar
     9     5     6   ar
    10     6     7   ar
    11     7     8   ar
    12     8     9    1
    13     8    10   ar
    14    10    11    1
    15    12     1    1
    16    12    13    1
    17    13    14    1
    18    14    15    1
    19    15    16    1
    20    10     4   ar
    21    16    12    1
    22    15    17    1
@<TRIPOS>MOLECULE
*****
 21 22 0 0 0
SMALL
GASTEIGER

@<TRIPOS>ATOM
      1 N         140.0736  140.8152  166.9129 N.am    1  UNL1       -0.2763
      2 C         141.0457  141.7614  166.2731 C.2     1  UNL1        0.2499
      3 O         142.2225  142.2686  167.0529 O.2     1  UNL1       -0.2699
      4 C         140.8412  142.2004  164.8534 C.ar    1  UNL1        0.0650
      5 C         141.5030  141.4523  163.7343 C.ar    1  UNL1        0.0054
      6 C         141.2985  141.8913  162.3146 C.ar    1  UNL1        0.0011
      7 C         140.4322  143.0785  162.0141 C.ar    1  UNL1        0.0123
      8 C         139.7705  143.8266  163.1332 C.ar    1  UNL1        0.0683
      9 CL        138.9042  145.0138  162.8327 Cl      1  UNL1       -0.0814
     10 C         139.9750  143.3875  164.5529 C.ar    1  UNL1        0.0725
     11 CL        139.3132  144.1357  165.6720 Cl      1  UNL1       -0.0812
     12 C         140.2781  140.3761  168.3326 C.3     1  UNL1        0.0927
     13 C         139.3603  140.6606  169.4844 C.3     1  UNL1        0.0383
     14 C         139.9513  140.0358  170.7134 C.3     1  UNL1        0.0704
     15 N         141.2344  139.3651  170.3211 N.3     1  UNL1       -0.2960
     16 C         141.4363  139.5755  168.8497 C.3     1  UNL1        0.0887
     17 H         141.1792  138.3670  170.5237 H       1  UNL1        0.1233
     18 C         138.8968  140.3079  166.1331 C.3     1  UNL1        0.0936
     19 C         137.5623  138.2487  166.9867 C.3     1  UNL1        0.0018
     20 C         138.6067  138.8371  166.0850 C.3     1  UNL1        0.0199
     21 C         139.3609  137.9545  165.1351 C.3     1  UNL1        0.0018
@<TRIPOS>BOND
     1    19    20    1
     2    20    21    1
     3    20    18    1
     4    18     1    1
     5     1     2   am
     6     2     3    2
     7     2     4    1
     8     4     5   ar
     9     5     6   ar
    10     6     7   ar
    11     7     8   ar
    12     8     9    1
    13     8    10   ar
    14    10    11    1
    15    12     1    1
    16    12    13    1
    17    13    14    1
    18    14    15    1
    19    15    16    1
    20    10     4   ar
    21    16    12    1
    22    15    17    1
@<TRIPOS>MOLECULE
*****
 21 22 0 0 0
SMALL
GASTEIGER

@<TRIPOS>ATOM
      1 N         141.9973  140.8334  166.6864 N.am    1  UNL1       -0.2763
      2 C         140.5044  140.8208  166.5415 C.2     1  UNL1        0.2499
      3 O         139.6322  141.0039  167.7481 O.2     1  UNL1       -0.2699
      4 C         139.8836  140.6251  165.1901 C.ar    1  UNL1        0.0650
      5 C         139.5726  141.8130  164.3285 C.ar    1  UNL1        0.0054
      6 C         138.9519  141.6173  162.9771 C.ar    1  UNL1        0.0011
      7 C         138.6421  140.2337  162.4872 C.ar    1  UNL1        0.0123
      8 C         138.9531  139.0459  163.3488 C.ar    1  UNL1        0.0683
      9 CL        138.6433  137.6624  162.8590 Cl      1  UNL1       -0.0814
     10 C         139.5738  139.2416  164.7003 C.ar    1  UNL1        0.0725
     11 CL        139.8848  138.0537  165.5619 Cl      1  UNL1       -0.0812
     12 C         142.6181  141.0291  168.0378 C.3     1  UNL1        0.0927
     13 C         143.2417  142.2948  168.5467 C.3     1  UNL1        0.0383
     14 C         143.7332  142.0414  169.9411 C.3     1  UNL1        0.0704
     15 N         143.4134  140.6190  170.2939 N.3     1  UNL1       -0.2960
     16 C         142.7242  139.9934  169.1177 C.3     1  UNL1        0.0887
     17 H         142.7997  140.5940  171.1083 H       1  UNL1        0.1233
     18 C         142.8695  140.6503  165.4798 C.3     1  UNL1        0.0936
     19 C         143.7190  138.2583  166.0331 C.3     1  UNL1        0.0018
     20 C         143.2485  139.2702  165.0308 C.3     1  UNL1        0.0199
     21 C         143.1570  138.9021  163.5796 C.3     1  UNL1        0.0018
@<TRIPOS>BOND
     1    19    20    1
     2    20    21    1
     3    20    18    1
     4    18     1    1
     5     1     2   am
     6     2     3    2
     7     2     4    1
     8     4     5   ar
     9     5     6   ar
    10     6     7   ar
    11     7     8   ar
    12     8     9    1
    13     8    10   ar
    14    10    11    1
    15    12     1    1
    16    12    13    1
    17    13    14    1
    18    14    15    1
    19    15    16    1
    20    10     4   ar
    21    16    12    1
    22    15    17    1
@<TRIPOS>MOLECULE
*****
 21 22 0 0 0
SMALL
GASTEIGER

@<TRIPOS>ATOM
      1 N         141.5639  140.7631  166.8427 N.am    1  UNL1       -0.2763
      2 C         142.5468  141.8511  166.5264 C.2     1  UNL1        0.2499
      3 O         143.3535  142.4761  167.6259 O.2     1  UNL1       -0.2699
      4 C         142.7233  142.3141  165.1106 C.ar    1  UNL1        0.0650
      5 C         141.9714  143.5136  164.6146 C.ar    1  UNL1        0.0054
      6 C         142.1478  143.9766  163.1987 C.ar    1  UNL1        0.0011
      7 C         143.0761  143.2401  162.2790 C.ar    1  UNL1        0.0123
      8 C         143.8279  142.0407  162.7750 C.ar    1  UNL1        0.0683
      9 CL        144.7562  141.3042  161.8552 Cl      1  UNL1       -0.0814
     10 C         143.6515  141.5777  164.1908 C.ar    1  UNL1        0.0725
     11 CL        144.4034  140.3782  164.6868 Cl      1  UNL1       -0.0812
     12 C         141.3875  140.3001  168.2585 C.3     1  UNL1        0.0927
     13 C         140.2348  140.6345  169.1583 C.3     1  UNL1        0.0383
     14 C         140.4677  139.9625  170.4790 C.3     1  UNL1        0.0704
     15 N         141.7642  139.2128  170.3954 N.3     1  UNL1       -0.2960
     16 C         142.3327  139.4215  169.0231 C.3     1  UNL1        0.0887
     17 H         141.6002  138.2187  170.5547 H       1  UNL1        0.1233
     18 C         140.7573  140.1382  165.7432 C.3     1  UNL1        0.0936
     19 C         138.7915  141.7176  165.1180 C.3     1  UNL1        0.0018
     20 C         139.2841  140.4043  165.6495 C.3     1  UNL1        0.0199
     21 C         138.3034  139.3571  166.0873 C.3     1  UNL1        0.0018
@<TRIPOS>BOND
     1    19    20    1
     2    20    21    1
     3    20    18    1
     4    18     1    1
     5     1     2   am
     6     2     3    2
     7     2     4    1
     8     4     5   ar
     9     5     6   ar
    10     6     7   ar
    11     7     8   ar
    12     8     9    1
    13     8    10   ar
    14    10    11    1
    15    12     1    1
    16    12    13    1
    17    13    14    1
    18    14    15    1
    19    15    16    1
    20    10     4   ar
    21    16    12    1
    22    15    17    1
