@<TRIPOS>MOLECULE
*****
 28 32 0 0 0
SMALL
GASTEIGER

@<TRIPOS>ATOM
      1 C         139.2547  140.2464  167.2029 C.ar    1  UNL1       -0.0207
      2 C         138.4842  139.4544  166.1885 C.ar    1  UNL1       -0.0027
      3 C         138.4799  139.8803  164.7503 C.ar    1  UNL1        0.0188
      4 C         139.2461  141.0982  164.3264 C.ar    1  UNL1        0.0812
      5 N         139.2418  141.5241  162.8881 N.ar    1  UNL1       -0.2454
      6 C         140.0081  142.7420  162.4643 C.ar    1  UNL1        0.0813
      7 C         140.7786  143.5340  163.4788 C.ar    1  UNL1        0.0191
      8 C         140.7829  143.1081  164.9170 C.ar    1  UNL1        0.0030
      9 C         140.0167  141.8902  165.3408 C.ar    1  UNL1        0.0174
     10 C         140.0209  141.4643  166.7790 C.ar    1  UNL1       -0.0027
     11 C         140.0038  143.1680  161.0261 C.ar    1  UNL1        0.0192
     12 C         138.9791  142.6119  160.0822 C.ar    1  UNL1        0.0031
     13 C         138.9748  143.0378  158.6440 C.ar    1  UNL1        0.0207
     14 C         139.9952  144.0198  158.1495 C.ar    1  UNL1        0.0989
     15 N         139.9909  144.4457  156.7113 N.ar    1  UNL1       -0.2407
     16 C         141.0113  145.4277  156.2169 C.ar    1  UNL1        0.1195
     17 C         142.0359  145.9838  157.1607 C.ar    1  UNL1        0.1195
     18 N         142.0402  145.5579  158.5989 N.ar    1  UNL1       -0.2407
     19 C         141.0198  144.5759  159.0933 C.ar    1  UNL1        0.0990
     20 C         141.0242  144.1500  160.5316 C.ar    1  UNL1        0.0221
     21 C         139.2590  139.8205  168.6412 C.3     1  UNL1        0.0437
     22 C         139.6007  140.8101  169.7154 C.3     1  UNL1        0.0768
     23 C         140.4672  143.9513  169.8913 C.3     1  UNL1        0.0173
     24 C         141.3998  142.7768  169.9163 C.3     1  UNL1        0.0576
     25 C         142.8944  142.8400  170.0265 C.3     1  UNL1        0.0174
     26 C         143.4199  141.4350  170.0137 C.3     1  UNL1        0.0187
     27 C         142.2500  140.5036  169.8956 C.3     1  UNL1        0.0721
     28 N         141.0016  141.3330  169.8354 N.3     1  UNL1       -0.2737
@<TRIPOS>BOND
     1    24    23    1
     2    24    25    1
     3    25    26    1
     4    26    27    1
     5    27    28    1
     6    28    22    1
     7    22    21    1
     8    21     1    1
     9     1     2   ar
    10     2     3   ar
    11     3     4   ar
    12     4     5   ar
    13     5     6   ar
    14     6    11    1
    15    11    12   ar
    16    12    13   ar
    17    13    14   ar
    18    14    15   ar
    19    15    16   ar
    20    16    17   ar
    21    17    18   ar
    22    18    19   ar
    23    19    20   ar
    24     6     7   ar
    25     7     8   ar
    26     8     9   ar
    27     9    10   ar
    28    28    24    1
    29    10     1   ar
    30     9     4   ar
    31    20    11   ar
    32    19    14   ar
@<TRIPOS>MOLECULE
*****
 28 32 0 0 0
SMALL
GASTEIGER

@<TRIPOS>ATOM
      1 C         141.0618  144.9413  159.6905 C.ar    1  UNL1       -0.0207
      2 C         141.7175  143.5934  159.7461 C.ar    1  UNL1       -0.0027
      3 C         141.6504  142.7781  161.0034 C.ar    1  UNL1        0.0188
      4 C         140.9277  143.3107  162.2050 C.ar    1  UNL1        0.0812
      5 N         140.8607  142.4953  163.4623 N.ar    1  UNL1       -0.2454
      6 C         140.1380  143.0280  164.6640 C.ar    1  UNL1        0.0813
      7 C         139.4824  144.3760  164.6084 C.ar    1  UNL1        0.0191
      8 C         139.5494  145.1913  163.3511 C.ar    1  UNL1        0.0030
      9 C         140.2721  144.6587  162.1495 C.ar    1  UNL1        0.0174
     10 C         140.3391  145.4740  160.8922 C.ar    1  UNL1       -0.0027
     11 C         140.0710  142.2127  165.9213 C.ar    1  UNL1        0.0192
     12 C         139.5250  140.8161  165.8813 C.ar    1  UNL1        0.0031
     13 C         139.4580  140.0008  167.1386 C.ar    1  UNL1        0.0207
     14 C         139.9368  140.5820  168.4358 C.ar    1  UNL1        0.0989
     15 N         139.8698  139.7667  169.6931 N.ar    1  UNL1       -0.2407
     16 C         140.3487  140.3479  170.9903 C.ar    1  UNL1        0.1195
     17 C         140.8946  141.7444  171.0303 C.ar    1  UNL1        0.1195
     18 N         140.9616  142.5597  169.7731 N.ar    1  UNL1       -0.2407
     19 C         140.4828  141.9785  168.4758 C.ar    1  UNL1        0.0990
     20 C         140.5498  142.7939  167.2185 C.ar    1  UNL1        0.0221
     21 C         141.1289  145.7567  158.4332 C.3     1  UNL1        0.0437
     22 C         140.1085  145.5541  157.3526 C.3     1  UNL1        0.0768
     23 C         141.3649  145.7292  154.3460 C.3     1  UNL1        0.0173
     24 C         140.4282  146.7212  154.9692 C.3     1  UNL1        0.0576
     25 C         139.9046  147.9679  154.3199 C.3     1  UNL1        0.0174
     26 C         139.0033  148.6579  155.3006 C.3     1  UNL1        0.0187
     27 C         138.9701  147.8376  156.5561 C.3     1  UNL1        0.0721
     28 N         139.8507  146.6407  156.3512 N.3     1  UNL1       -0.2737
@<TRIPOS>BOND
     1    24    23    1
     2    24    25    1
     3    25    26    1
     4    26    27    1
     5    27    28    1
     6    28    22    1
     7    22    21    1
     8    21     1    1
     9     1     2   ar
    10     2     3   ar
    11     3     4   ar
    12     4     5   ar
    13     5     6   ar
    14     6    11    1
    15    11    12   ar
    16    12    13   ar
    17    13    14   ar
    18    14    15   ar
    19    15    16   ar
    20    16    17   ar
    21    17    18   ar
    22    18    19   ar
    23    19    20   ar
    24     6     7   ar
    25     7     8   ar
    26     8     9   ar
    27     9    10   ar
    28    28    24    1
    29    10     1   ar
    30     9     4   ar
    31    20    11   ar
    32    19    14   ar
@<TRIPOS>MOLECULE
*****
 28 32 0 0 0
SMALL
GASTEIGER

@<TRIPOS>ATOM
      1 C         142.7279  138.4636  165.2612 C.ar    1  UNL1       -0.0207
      2 C         141.5562  137.6027  164.8925 C.ar    1  UNL1       -0.0027
      3 C         141.2417  137.3421  163.4492 C.ar    1  UNL1        0.0188
      4 C         142.0988  137.9425  162.3746 C.ar    1  UNL1        0.0812
      5 N         141.7843  137.6818  160.9312 N.ar    1  UNL1       -0.2454
      6 C         142.6414  138.2822  159.8566 C.ar    1  UNL1        0.0813
      7 C         143.8132  139.1431  160.2253 C.ar    1  UNL1        0.0191
      8 C         144.1277  139.4037  161.6686 C.ar    1  UNL1        0.0030
      9 C         143.2705  138.8034  162.7432 C.ar    1  UNL1        0.0174
     10 C         143.5850  139.0640  164.1865 C.ar    1  UNL1       -0.0027
     11 C         142.3269  138.0216  158.4133 C.ar    1  UNL1        0.0192
     12 C         141.5273  139.0187  157.6280 C.ar    1  UNL1        0.0031
     13 C         141.2128  138.7581  156.1847 C.ar    1  UNL1        0.0207
     14 C         141.6979  137.5005  155.5266 C.ar    1  UNL1        0.0989
     15 N         141.3834  137.2399  154.0834 N.ar    1  UNL1       -0.2407
     16 C         141.8684  135.9822  153.4252 C.ar    1  UNL1        0.1195
     17 C         142.6680  134.9852  154.2104 C.ar    1  UNL1        0.1195
     18 N         142.9825  135.2458  155.6537 N.ar    1  UNL1       -0.2407
     19 C         142.4974  136.5034  156.3118 C.ar    1  UNL1        0.0990
     20 C         142.8120  136.7640  157.7552 C.ar    1  UNL1        0.0221
     21 C         143.0424  138.7242  166.7045 C.3     1  UNL1        0.0437
     22 C         142.6448  140.0256  167.3357 C.3     1  UNL1        0.0768
     23 C         139.4815  140.3416  166.5990 C.3     1  UNL1        0.0173
     24 C         140.0569  140.2130  167.9782 C.3     1  UNL1        0.0576
     25 C         139.2794  140.2072  169.2609 C.3     1  UNL1        0.0174
     26 C         140.2529  140.0583  170.3924 C.3     1  UNL1        0.0187
     27 C         141.6321  139.9721  169.8089 C.3     1  UNL1        0.0721
     28 N         141.5109  140.0678  168.3168 N.3     1  UNL1       -0.2737
@<TRIPOS>BOND
     1    24    23    1
     2    24    25    1
     3    25    26    1
     4    26    27    1
     5    27    28    1
     6    28    22    1
     7    22    21    1
     8    21     1    1
     9     1     2   ar
    10     2     3   ar
    11     3     4   ar
    12     4     5   ar
    13     5     6   ar
    14     6    11    1
    15    11    12   ar
    16    12    13   ar
    17    13    14   ar
    18    14    15   ar
    19    15    16   ar
    20    16    17   ar
    21    17    18   ar
    22    18    19   ar
    23    19    20   ar
    24     6     7   ar
    25     7     8   ar
    26     8     9   ar
    27     9    10   ar
    28    28    24    1
    29    10     1   ar
    30     9     4   ar
    31    20    11   ar
    32    19    14   ar
@<TRIPOS>MOLECULE
*****
 28 32 0 0 0
SMALL
GASTEIGER

@<TRIPOS>ATOM
      1 C         139.4404  137.6172  164.4222 C.ar    1  UNL1       -0.0207
      2 C         140.9290  137.6122  164.6067 C.ar    1  UNL1       -0.0027
      3 C         141.8308  137.8591  163.4338 C.ar    1  UNL1        0.0188
      4 C         141.2441  138.1108  162.0765 C.ar    1  UNL1        0.0812
      5 N         142.1460  138.3577  160.9036 N.ar    1  UNL1       -0.2454
      6 C         141.5593  138.6095  159.5462 C.ar    1  UNL1        0.0813
      7 C         140.0706  138.6144  159.3618 C.ar    1  UNL1        0.0191
      8 C         139.1688  138.3676  160.5347 C.ar    1  UNL1        0.0030
      9 C         139.7555  138.1158  161.8920 C.ar    1  UNL1        0.0174
     10 C         138.8537  137.8690  163.0649 C.ar    1  UNL1       -0.0027
     11 C         142.4612  138.8563  158.3733 C.ar    1  UNL1        0.0192
     12 C         142.4405  137.9203  157.2013 C.ar    1  UNL1        0.0031
     13 C         143.3423  138.1671  156.0284 C.ar    1  UNL1        0.0207
     14 C         144.2649  139.3499  156.0275 C.ar    1  UNL1        0.0989
     15 N         145.1667  139.5967  154.8546 N.ar    1  UNL1       -0.2407
     16 C         146.0893  140.7794  154.8537 C.ar    1  UNL1        0.1195
     17 C         146.1100  141.7154  156.0257 C.ar    1  UNL1        0.1195
     18 N         145.2082  141.4685  157.1986 N.ar    1  UNL1       -0.2407
     19 C         144.2856  140.2858  157.1995 C.ar    1  UNL1        0.0990
     20 C         143.3837  140.0390  158.3724 C.ar    1  UNL1        0.0221
     21 C         138.5385  137.3704  165.5952 C.3     1  UNL1        0.0437
     22 C         138.0433  138.5238  166.4163 C.3     1  UNL1        0.0768
     23 C         138.1733  141.1074  164.4269 C.3     1  UNL1        0.0173
     24 C         138.9653  140.9247  165.6875 C.3     1  UNL1        0.0576
     25 C         139.9560  141.8974  166.2551 C.3     1  UNL1        0.0174
     26 C         140.5087  141.3111  167.5204 C.3     1  UNL1        0.0187
     27 C         139.8593  139.9759  167.7348 C.3     1  UNL1        0.0721
     28 N         138.9055  139.7372  166.6020 N.3     1  UNL1       -0.2737
@<TRIPOS>BOND
     1    24    23    1
     2    24    25    1
     3    25    26    1
     4    26    27    1
     5    27    28    1
     6    28    22    1
     7    22    21    1
     8    21     1    1
     9     1     2   ar
    10     2     3   ar
    11     3     4   ar
    12     4     5   ar
    13     5     6   ar
    14     6    11    1
    15    11    12   ar
    16    12    13   ar
    17    13    14   ar
    18    14    15   ar
    19    15    16   ar
    20    16    17   ar
    21    17    18   ar
    22    18    19   ar
    23    19    20   ar
    24     6     7   ar
    25     7     8   ar
    26     8     9   ar
    27     9    10   ar
    28    28    24    1
    29    10     1   ar
    30     9     4   ar
    31    20    11   ar
    32    19    14   ar
@<TRIPOS>MOLECULE
*****
 28 32 0 0 0
SMALL
GASTEIGER

@<TRIPOS>ATOM
      1 C         139.3499  140.2069  167.3992 C.ar    1  UNL1       -0.0207
      2 C         139.8420  141.4513  166.7214 C.ar    1  UNL1       -0.0027
      3 C         140.0876  141.4523  165.2417 C.ar    1  UNL1        0.0188
      4 C         139.8411  140.2089  164.4397 C.ar    1  UNL1        0.0812
      5 N         140.0867  140.2099  162.9599 N.ar    1  UNL1       -0.2454
      6 C         139.8402  138.9665  162.1579 C.ar    1  UNL1        0.0813
      7 C         139.3481  137.7221  162.8357 C.ar    1  UNL1        0.0191
      8 C         139.1025  137.7211  164.3154 C.ar    1  UNL1        0.0030
      9 C         139.3490  138.9645  165.1174 C.ar    1  UNL1        0.0174
     10 C         139.1034  138.9635  166.5971 C.ar    1  UNL1       -0.0027
     11 C         140.0858  138.9675  160.6782 C.ar    1  UNL1        0.0192
     12 C         139.0359  139.4918  159.7440 C.ar    1  UNL1        0.0031
     13 C         139.2815  139.4928  158.2642 C.ar    1  UNL1        0.0207
     14 C         140.5770  138.9694  157.7186 C.ar    1  UNL1        0.0989
     15 N         140.8226  138.9704  156.2389 N.ar    1  UNL1       -0.2407
     16 C         142.1181  138.4470  155.6933 C.ar    1  UNL1        0.1195
     17 C         143.1681  137.9227  156.6275 C.ar    1  UNL1        0.1195
     18 N         142.9225  137.9217  158.1072 N.ar    1  UNL1       -0.2407
     19 C         141.6269  138.4451  158.6528 C.ar    1  UNL1        0.0990
     20 C         141.3814  138.4441  160.1326 C.ar    1  UNL1        0.0221
     21 C         139.1042  140.2059  168.8790 C.3     1  UNL1        0.0437
     22 C         140.2528  140.0423  169.8297 C.3     1  UNL1        0.0768
     23 C         142.9172  139.8133  167.9595 C.3     1  UNL1        0.0173
     24 C         142.6200  140.9086  168.9403 C.3     1  UNL1        0.0576
     25 C         143.4953  142.0909  169.2337 C.3     1  UNL1        0.0174
     26 C         142.8115  142.9269  170.2747 C.3     1  UNL1        0.0187
     27 C         141.5136  142.2612  170.6247 C.3     1  UNL1        0.0721
     28 N         141.3953  141.0138  169.8000 N.3     1  UNL1       -0.2737
@<TRIPOS>BOND
     1    24    23    1
     2    24    25    1
     3    25    26    1
     4    26    27    1
     5    27    28    1
     6    28    22    1
     7    22    21    1
     8    21     1    1
     9     1     2   ar
    10     2     3   ar
    11     3     4   ar
    12     4     5   ar
    13     5     6   ar
    14     6    11    1
    15    11    12   ar
    16    12    13   ar
    17    13    14   ar
    18    14    15   ar
    19    15    16   ar
    20    16    17   ar
    21    17    18   ar
    22    18    19   ar
    23    19    20   ar
    24     6     7   ar
    25     7     8   ar
    26     8     9   ar
    27     9    10   ar
    28    28    24    1
    29    10     1   ar
    30     9     4   ar
    31    20    11   ar
    32    19    14   ar
@<TRIPOS>MOLECULE
*****
 28 32 0 0 0
SMALL
GASTEIGER

@<TRIPOS>ATOM
      1 C         142.4663  139.8446  167.0117 C.ar    1  UNL1       -0.0207
      2 C         141.4055  139.2695  166.1207 C.ar    1  UNL1       -0.0027
      3 C         141.0266  139.9763  164.8531 C.ar    1  UNL1        0.0188
      4 C         141.7085  141.2581  164.4765 C.ar    1  UNL1        0.0812
      5 N         141.3296  141.9649  163.2088 N.ar    1  UNL1       -0.2454
      6 C         142.0115  143.2468  162.8322 C.ar    1  UNL1        0.0813
      7 C         143.0724  143.8218  163.7232 C.ar    1  UNL1        0.0191
      8 C         143.4513  143.1150  164.9908 C.ar    1  UNL1        0.0030
      9 C         142.7693  141.8332  165.3674 C.ar    1  UNL1        0.0174
     10 C         143.1482  141.1264  166.6350 C.ar    1  UNL1       -0.0027
     11 C         141.6326  143.9535  161.5646 C.ar    1  UNL1        0.0192
     12 C         140.5758  145.0179  161.5864 C.ar    1  UNL1        0.0031
     13 C         140.1969  145.7247  160.3188 C.ar    1  UNL1        0.0207
     14 C         140.8748  145.3672  159.0293 C.ar    1  UNL1        0.0989
     15 N         140.4959  146.0739  157.7617 N.ar    1  UNL1       -0.2407
     16 C         141.1738  145.7164  156.4722 C.ar    1  UNL1        0.1195
     17 C         142.2305  144.6521  156.4504 C.ar    1  UNL1        0.1195
     18 N         142.6094  143.9454  157.7180 N.ar    1  UNL1       -0.2407
     19 C         141.9315  144.3029  159.0074 C.ar    1  UNL1        0.0990
     20 C         142.3105  143.5960  160.2751 C.ar    1  UNL1        0.0221
     21 C         142.8452  139.1378  168.2793 C.3     1  UNL1        0.0437
     22 C         142.2937  139.6067  169.5931 C.3     1  UNL1        0.0768
     23 C         139.1257  140.3452  169.3331 C.3     1  UNL1        0.0173
     24 C         140.2393  141.3168  169.5896 C.3     1  UNL1        0.0576
     25 C         140.0923  142.7984  169.7717 C.3     1  UNL1        0.0174
     26 C         141.4577  143.3747  170.0037 C.3     1  UNL1        0.0187
     27 C         142.4485  142.2491  169.9650 C.3     1  UNL1        0.0721
     28 N         141.6955  140.9773  169.7091 N.3     1  UNL1       -0.2737
@<TRIPOS>BOND
     1    24    23    1
     2    24    25    1
     3    25    26    1
     4    26    27    1
     5    27    28    1
     6    28    22    1
     7    22    21    1
     8    21     1    1
     9     1     2   ar
    10     2     3   ar
    11     3     4   ar
    12     4     5   ar
    13     5     6   ar
    14     6    11    1
    15    11    12   ar
    16    12    13   ar
    17    13    14   ar
    18    14    15   ar
    19    15    16   ar
    20    16    17   ar
    21    17    18   ar
    22    18    19   ar
    23    19    20   ar
    24     6     7   ar
    25     7     8   ar
    26     8     9   ar
    27     9    10   ar
    28    28    24    1
    29    10     1   ar
    30     9     4   ar
    31    20    11   ar
    32    19    14   ar
@<TRIPOS>MOLECULE
*****
 28 32 0 0 0
SMALL
GASTEIGER

@<TRIPOS>ATOM
      1 C         141.5434  138.1914  158.9146 C.ar    1  UNL1       -0.0207
      2 C         140.1524  138.6414  159.2499 C.ar    1  UNL1       -0.0027
      3 C         139.7925  138.9715  160.6681 C.ar    1  UNL1        0.0188
      4 C         140.8235  138.8517  161.7510 C.ar    1  UNL1        0.0812
      5 N         140.4635  139.1820  163.1693 N.ar    1  UNL1       -0.2454
      6 C         141.4946  139.0621  164.2521 C.ar    1  UNL1        0.0813
      7 C         142.8857  138.6121  163.9166 C.ar    1  UNL1        0.0191
      8 C         143.2456  138.2819  162.4984 C.ar    1  UNL1        0.0030
      9 C         142.2146  138.4017  161.4156 C.ar    1  UNL1        0.0174
     10 C         142.5745  138.0715  159.9974 C.ar    1  UNL1       -0.0027
     11 C         141.1347  139.3923  165.6703 C.ar    1  UNL1        0.0192
     12 C         139.6960  139.5655  166.0581 C.ar    1  UNL1        0.0031
     13 C         139.3361  139.8957  167.4763 C.ar    1  UNL1        0.0207
     14 C         140.4147  140.0527  168.5068 C.ar    1  UNL1        0.0989
     15 N         140.0548  140.3829  169.9250 N.ar    1  UNL1       -0.2407
     16 C         141.1334  140.5400  170.9554 C.ar    1  UNL1        0.1195
     17 C         142.5720  140.3669  170.5677 C.ar    1  UNL1        0.1195
     18 N         142.9320  140.0367  169.1495 N.ar    1  UNL1       -0.2407
     19 C         141.8533  139.8796  168.1190 C.ar    1  UNL1        0.0990
     20 C         142.2133  139.5494  166.7007 C.ar    1  UNL1        0.0221
     21 C         141.9034  137.8611  157.4963 C.3     1  UNL1        0.0437
     22 C         142.8878  136.7668  157.2077 C.3     1  UNL1        0.0768
     23 C         143.9477  133.7463  157.8420 C.3     1  UNL1        0.0173
     24 C         142.9216  134.1230  156.8149 C.3     1  UNL1        0.0576
     25 C         142.2024  133.1775  155.8990 C.3     1  UNL1        0.0174
     26 C         141.2707  133.9815  155.0413 C.3     1  UNL1        0.0187
     27 C         141.4141  135.4240  155.4272 C.3     1  UNL1        0.0721
     28 N         142.4344  135.5113  156.5233 N.3     1  UNL1       -0.2737
@<TRIPOS>BOND
     1    24    23    1
     2    24    25    1
     3    25    26    1
     4    26    27    1
     5    27    28    1
     6    28    22    1
     7    22    21    1
     8    21     1    1
     9     1     2   ar
    10     2     3   ar
    11     3     4   ar
    12     4     5   ar
    13     5     6   ar
    14     6    11    1
    15    11    12   ar
    16    12    13   ar
    17    13    14   ar
    18    14    15   ar
    19    15    16   ar
    20    16    17   ar
    21    17    18   ar
    22    18    19   ar
    23    19    20   ar
    24     6     7   ar
    25     7     8   ar
    26     8     9   ar
    27     9    10   ar
    28    28    24    1
    29    10     1   ar
    30     9     4   ar
    31    20    11   ar
    32    19    14   ar
@<TRIPOS>MOLECULE
*****
 28 32 0 0 0
SMALL
GASTEIGER

@<TRIPOS>ATOM
      1 C         140.2723  143.6690  165.2108 C.ar    1  UNL1       -0.0207
      2 C         139.2353  144.6337  164.7169 C.ar    1  UNL1       -0.0027
      3 C         139.2402  145.0704  163.2820 C.ar    1  UNL1        0.0188
      4 C         140.2822  144.5424  162.3409 C.ar    1  UNL1        0.0812
      5 N         140.2871  144.9792  160.9058 N.ar    1  UNL1       -0.2454
      6 C         141.3290  144.4512  159.9648 C.ar    1  UNL1        0.0813
      7 C         142.3661  143.4865  160.4587 C.ar    1  UNL1        0.0191
      8 C         142.3611  143.0498  161.8937 C.ar    1  UNL1        0.0030
      9 C         141.3192  143.5778  162.8348 C.ar    1  UNL1        0.0174
     10 C         141.3143  143.1411  164.2698 C.ar    1  UNL1       -0.0027
     11 C         141.3339  144.8880  158.5298 C.ar    1  UNL1        0.0192
     12 C         142.3456  144.3228  157.5773 C.ar    1  UNL1        0.0031
     13 C         142.3505  144.7595  156.1423 C.ar    1  UNL1        0.0207
     14 C         141.3438  145.7614  155.6597 C.ar    1  UNL1        0.0989
     15 N         141.3487  146.1981  154.2248 N.ar    1  UNL1       -0.2407
     16 C         140.3420  147.1999  153.7422 C.ar    1  UNL1        0.1195
     17 C         139.3304  147.7650  154.6946 C.ar    1  UNL1        0.1195
     18 N         139.3255  147.3283  156.1296 N.ar    1  UNL1       -0.2407
     19 C         140.3322  146.3265  156.6122 C.ar    1  UNL1        0.0990
     20 C         140.3272  145.8898  158.0472 C.ar    1  UNL1        0.0221
     21 C         140.2675  143.2322  166.6459 C.3     1  UNL1        0.0437
     22 C         140.6558  141.8283  167.0039 C.3     1  UNL1        0.0768
     23 C         139.2064  140.0487  169.3237 C.3     1  UNL1        0.0173
     24 C         139.0246  139.8844  167.8439 C.3     1  UNL1        0.0576
     25 C         138.1447  138.8732  167.1706 C.3     1  UNL1        0.0174
     26 C         138.2671  139.0663  165.6880 C.3     1  UNL1        0.0187
     27 C         139.2227  140.1968  165.4452 C.3     1  UNL1        0.0721
     28 N         139.6908  140.7024  166.7776 N.3     1  UNL1       -0.2737
@<TRIPOS>BOND
     1    24    23    1
     2    24    25    1
     3    25    26    1
     4    26    27    1
     5    27    28    1
     6    28    22    1
     7    22    21    1
     8    21     1    1
     9     1     2   ar
    10     2     3   ar
    11     3     4   ar
    12     4     5   ar
    13     5     6   ar
    14     6    11    1
    15    11    12   ar
    16    12    13   ar
    17    13    14   ar
    18    14    15   ar
    19    15    16   ar
    20    16    17   ar
    21    17    18   ar
    22    18    19   ar
    23    19    20   ar
    24     6     7   ar
    25     7     8   ar
    26     8     9   ar
    27     9    10   ar
    28    28    24    1
    29    10     1   ar
    30     9     4   ar
    31    20    11   ar
    32    19    14   ar
@<TRIPOS>MOLECULE
*****
 28 32 0 0 0
SMALL
GASTEIGER

@<TRIPOS>ATOM
      1 C         143.0298  142.5494  165.4407 C.ar    1  UNL1       -0.0207
      2 C         144.1777  143.3294  164.8716 C.ar    1  UNL1       -0.0027
      3 C         144.0892  143.8883  163.4825 C.ar    1  UNL1        0.0188
      4 C         142.8528  143.6673  162.6624 C.ar    1  UNL1        0.0812
      5 N         142.7644  144.2263  161.2732 N.ar    1  UNL1       -0.2454
      6 C         141.5280  144.0053  160.4532 C.ar    1  UNL1        0.0813
      7 C         140.3800  143.2252  161.0223 C.ar    1  UNL1        0.0191
      8 C         140.4685  142.6663  162.4114 C.ar    1  UNL1        0.0030
      9 C         141.7049  142.8873  163.2315 C.ar    1  UNL1        0.0174
     10 C         141.7934  142.3283  164.6206 C.ar    1  UNL1       -0.0027
     11 C         141.4395  144.5642  159.0641 C.ar    1  UNL1        0.0192
     12 C         142.4093  144.1149  158.0116 C.ar    1  UNL1        0.0031
     13 C         142.3208  144.6738  156.6225 C.ar    1  UNL1        0.0207
     14 C         141.2626  145.6822  156.2858 C.ar    1  UNL1        0.0989
     15 N         141.1741  146.2411  154.8966 N.ar    1  UNL1       -0.2407
     16 C         140.1159  147.2495  154.5599 C.ar    1  UNL1        0.1195
     17 C         139.1461  147.6988  155.6123 C.ar    1  UNL1        0.1195
     18 N         139.2346  147.1399  157.0014 N.ar    1  UNL1       -0.2407
     19 C         140.2928  146.1315  157.3381 C.ar    1  UNL1        0.0990
     20 C         140.3813  145.5726  158.7274 C.ar    1  UNL1        0.0221
     21 C         143.1182  141.9904  166.8298 C.3     1  UNL1        0.0437
     22 C         142.3466  140.7562  167.1922 C.3     1  UNL1        0.0768
     23 C         142.5887  138.8968  169.8630 C.3     1  UNL1        0.0173
     24 C         141.5240  139.9185  169.5936 C.3     1  UNL1        0.0576
     25 C         140.3837  140.2648  170.5045 C.3     1  UNL1        0.0174
     26 C         139.5676  141.3336  169.8398 C.3     1  UNL1        0.0187
     27 C         140.2036  141.6478  168.5181 C.3     1  UNL1        0.0721
     28 N         141.4127  140.7731  168.3660 N.3     1  UNL1       -0.2737
@<TRIPOS>BOND
     1    24    23    1
     2    24    25    1
     3    25    26    1
     4    26    27    1
     5    27    28    1
     6    28    22    1
     7    22    21    1
     8    21     1    1
     9     1     2   ar
    10     2     3   ar
    11     3     4   ar
    12     4     5   ar
    13     5     6   ar
    14     6    11    1
    15    11    12   ar
    16    12    13   ar
    17    13    14   ar
    18    14    15   ar
    19    15    16   ar
    20    16    17   ar
    21    17    18   ar
    22    18    19   ar
    23    19    20   ar
    24     6     7   ar
    25     7     8   ar
    26     8     9   ar
    27     9    10   ar
    28    28    24    1
    29    10     1   ar
    30     9     4   ar
    31    20    11   ar
    32    19    14   ar
