@<TRIPOS>MOLECULE
*****
 38 41 0 0 0
SMALL
GASTEIGER

@<TRIPOS>ATOM
      1 S         139.1685  140.0688  164.9530 S.O2    1  UNL1        0.0134
      2 O         137.8329  140.2635  164.9839 O.2     1  UNL1       -0.1683
      3 O         140.6350  139.8392  164.7369 O.2     1  UNL1       -0.1683
      4 C         139.4014  140.1644  166.4317 C.3     1  UNL1        0.1845
      5 C         139.9951  141.4996  166.0929 C.3     1  UNL1        0.0313
      6 C         140.4606  142.1371  167.3684 C.3     1  UNL1        0.0024
      7 C         140.1546  141.1958  168.4957 C.3     1  UNL1        0.0048
      8 C         139.7888  140.1578  169.5147 C.3     1  UNL1        0.0172
      9 C         140.0854  140.3942  170.9659 C.3     1  UNL1        0.0686
     10 N         140.7478  141.6687  171.3981 N.3     1  UNL1       -0.2975
     11 C         141.1136  142.7068  170.3791 C.3     1  UNL1        0.0686
     12 C         140.8171  142.4704  168.9278 C.3     1  UNL1        0.0172
     13 C         139.5000  139.9767  167.9168 C.3     1  UNL1        0.0314
     14 H         141.6111  141.4054  171.8732 H       1  UNL1        0.1232
     15 C         138.7590  138.8093  166.4615 C.2     1  UNL1        0.2644
     16 O         139.1390  137.7147  165.7686 O.2     1  UNL1       -0.2713
     17 N         137.5610  138.5660  167.3307 N.am    1  UNL1       -0.1956
     18 O         136.9187  137.2108  167.3604 O.3     1  UNL1       -0.2951
     19 H         137.1962  139.2958  167.8816 H       1  UNL1        0.1823
     20 H         137.3976  136.6129  166.7654 H       1  UNL1        0.2414
     21 C         138.4697  139.7821  160.5169 C.ar    1  UNL1        0.1454
     22 C         139.6663  139.1191  161.1321 C.ar    1  UNL1        0.0388
     23 C         139.8992  139.2147  162.6108 C.ar    1  UNL1        0.0215
     24 C         138.9356  139.9733  163.4743 C.ar    1  UNL1        0.1063
     25 C         137.7389  140.6364  162.8592 C.ar    1  UNL1        0.0215
     26 C         137.5060  140.5408  161.3805 C.ar    1  UNL1        0.0388
     27 O         138.2368  139.6866  159.0382 O.3     1  UNL1       -0.4535
     28 C         138.3273  143.4023  156.5013 C.ar    1  UNL1        0.0536
     29 C         137.2730  142.3609  156.2688 C.ar    1  UNL1        0.0076
     30 C         137.2428  141.1224  157.1145 C.ar    1  UNL1        0.0376
     31 C         138.2670  140.9252  158.1926 C.ar    1  UNL1        0.1453
     32 C         139.3213  141.9665  158.4250 C.ar    1  UNL1        0.0376
     33 C         139.3514  143.2051  157.5794 C.ar    1  UNL1        0.0076
     34 C         139.6347  146.7102  154.7412 C.3     1  UNL1        0.1109
     35 N         139.6044  145.4716  155.5867 N.am    1  UNL1       -0.2992
     36 C         138.3574  144.6408  155.6557 C.2     1  UNL1        0.2459
     37 O         137.1406  145.0486  154.8790 O.2     1  UNL1       -0.2701
     38 H         140.4030  145.2040  156.0965 H       1  UNL1        0.1498
@<TRIPOS>BOND
     1    34    35    1
     2    35    36   am
     3    36    37    2
     4    36    28    1
     5    28    29   ar
     6    29    30   ar
     7    30    31   ar
     8    31    27    1
     9    27    21    1
    10    21    22   ar
    11    22    23   ar
    12    23    24   ar
    13    24     1    1
    14     1     2    2
    15     1     3    2
    16     1     4    1
    17     4    15    1
    18    15    16    2
    19    15    17   am
    20    17    18    1
    21     4     5    1
    22     5     6    1
    23     6     7    1
    24     7     8    1
    25     8     9    1
    26     9    10    1
    27    10    11    1
    28    11    12    1
    29     7    13    1
    30    24    25   ar
    31    25    26   ar
    32    31    32   ar
    33    32    33   ar
    34    33    28   ar
    35    26    21   ar
    36    13     4    1
    37    12     7    1
    38    35    38    1
    39    17    19    1
    40    18    20    1
    41    10    14    1
@<TRIPOS>MOLECULE
*****
 38 41 0 0 0
SMALL
GASTEIGER

@<TRIPOS>ATOM
      1 S         141.7406  143.6996  159.4385 S.O2    1  UNL1        0.0134
      2 O         142.3004  144.6736  160.1871 O.2     1  UNL1       -0.1683
      3 O         141.1969  142.4990  158.7222 O.2     1  UNL1       -0.1683
      4 C         141.0640  144.5980  158.4460 C.3     1  UNL1        0.1845
      5 C         142.1860  144.1820  157.5414 C.3     1  UNL1        0.0313
      6 C         141.9978  144.8710  156.2224 C.3     1  UNL1        0.0024
      7 C         140.7595  145.7129  156.3116 C.3     1  UNL1        0.0048
      8 C         139.5067  146.5030  156.5485 C.3     1  UNL1        0.0172
      9 C         138.9443  147.3627  155.4554 C.3     1  UNL1        0.0686
     10 N         139.6348  147.4322  154.1256 N.3     1  UNL1       -0.2975
     11 C         140.8876  146.6421  153.8888 C.3     1  UNL1        0.0686
     12 C         141.4499  145.7825  154.9818 C.3     1  UNL1        0.0172
     13 C         140.1824  145.5442  157.6859 C.3     1  UNL1        0.0314
     14 H         139.8701  148.4119  153.9669 H       1  UNL1        0.1232
     15 C         140.0834  144.8263  159.5578 C.2     1  UNL1        0.2644
     16 O         139.2554  143.9146  160.1108 O.2     1  UNL1       -0.2713
     17 N         139.9508  146.1878  160.1733 N.am    1  UNL1       -0.1956
     18 O         138.9702  146.4160  161.2852 O.3     1  UNL1       -0.2951
     19 H         140.5074  146.9316  159.8474 H       1  UNL1        0.1823
     20 H         138.5070  145.5870  161.4830 H       1  UNL1        0.2414
     21 C         143.7703  141.0044  162.4159 C.ar    1  UNL1        0.1454
     22 C         142.5588  140.5240  161.6734 C.ar    1  UNL1        0.0388
     23 C         141.8823  141.4224  160.6809 C.ar    1  UNL1        0.0215
     24 C         142.4171  142.8012  160.4310 C.ar    1  UNL1        0.1063
     25 C         143.6286  143.2817  161.1735 C.ar    1  UNL1        0.0215
     26 C         144.3052  142.3833  162.1660 C.ar    1  UNL1        0.0388
     27 O         144.4469  140.1060  163.4084 O.3     1  UNL1       -0.4535
     28 C         142.7494  139.6471  167.5507 C.ar    1  UNL1        0.0536
     29 C         142.6735  140.9720  166.8516 C.ar    1  UNL1        0.0076
     30 C         143.2393  141.1250  165.4709 C.ar    1  UNL1        0.0376
     31 C         143.8810  139.9530  164.7892 C.ar    1  UNL1        0.1453
     32 C         143.9570  138.6281  165.4883 C.ar    1  UNL1        0.0376
     33 C         143.3912  138.4751  166.8691 C.ar    1  UNL1        0.0076
     34 C         140.3380  140.0322  170.6791 C.3     1  UNL1        0.1109
     35 N         140.9039  140.1852  169.2984 N.am    1  UNL1       -0.2992
     36 C         142.1836  139.4941  168.9314 C.2     1  UNL1        0.2459
     37 O         142.8975  138.6499  169.9453 O.2     1  UNL1       -0.2701
     38 H         140.4353  140.7392  168.6330 H       1  UNL1        0.1498
@<TRIPOS>BOND
     1    34    35    1
     2    35    36   am
     3    36    37    2
     4    36    28    1
     5    28    29   ar
     6    29    30   ar
     7    30    31   ar
     8    31    27    1
     9    27    21    1
    10    21    22   ar
    11    22    23   ar
    12    23    24   ar
    13    24     1    1
    14     1     2    2
    15     1     3    2
    16     1     4    1
    17     4    15    1
    18    15    16    2
    19    15    17   am
    20    17    18    1
    21     4     5    1
    22     5     6    1
    23     6     7    1
    24     7     8    1
    25     8     9    1
    26     9    10    1
    27    10    11    1
    28    11    12    1
    29     7    13    1
    30    24    25   ar
    31    25    26   ar
    32    31    32   ar
    33    32    33   ar
    34    33    28   ar
    35    26    21   ar
    36    13     4    1
    37    12     7    1
    38    35    38    1
    39    17    19    1
    40    18    20    1
    41    10    14    1
@<TRIPOS>MOLECULE
*****
 38 41 0 0 0
SMALL
GASTEIGER

@<TRIPOS>ATOM
      1 S         139.3222  140.7160  164.9741 S.O2    1  UNL1        0.0134
      2 O         137.9758  140.8024  165.0217 O.2     1  UNL1       -0.1683
      3 O         140.8017  140.6361  164.7397 O.2     1  UNL1       -0.1683
      4 C         139.5488  140.5787  166.4505 C.3     1  UNL1        0.1845
      5 C         140.0626  141.9839  166.3431 C.3     1  UNL1        0.0313
      6 C         140.4894  142.4272  167.7111 C.3     1  UNL1        0.0024
      7 C         140.2394  141.2960  168.6640 C.3     1  UNL1        0.0048
      8 C         139.9355  140.0839  169.4936 C.3     1  UNL1        0.0172
      9 C         140.2173  140.0935  170.9669 C.3     1  UNL1        0.0686
     10 N         140.8032  141.3152  171.6104 N.3     1  UNL1       -0.2975
     11 C         141.1071  142.5273  170.7808 C.3     1  UNL1        0.0686
     12 C         140.8253  142.5177  169.3076 C.3     1  UNL1        0.0172
     13 C         139.6581  140.1535  167.8850 C.3     1  UNL1        0.0314
     14 H         141.6805  141.0276  172.0441 H       1  UNL1        0.1232
     15 C         138.9877  139.2022  166.2494 C.2     1  UNL1        0.2644
     16 O         139.4929  138.2254  165.4664 O.2     1  UNL1       -0.2713
     17 N         137.7324  138.7926  166.9609 N.am    1  UNL1       -0.1956
     18 O         137.1714  137.4160  166.7597 O.3     1  UNL1       -0.2951
     19 H         137.2767  139.4271  167.5600 H       1  UNL1        0.1823
     20 H         137.7368  136.9232  166.1446 H       1  UNL1        0.2414
     21 C         138.6423  141.1281  160.5450 C.ar    1  UNL1        0.1454
     22 C         139.8881  141.6851  161.1676 C.ar    1  UNL1        0.0388
     23 C         140.1147  141.5478  162.6440 C.ar    1  UNL1        0.0215
     24 C         139.0956  140.8534  163.4978 C.ar    1  UNL1        0.1063
     25 C         137.8498  140.2963  162.8752 C.ar    1  UNL1        0.0215
     26 C         137.6231  140.4336  161.3988 C.ar    1  UNL1        0.0388
     27 O         138.4157  141.2654  159.0686 O.3     1  UNL1       -0.4535
     28 C         139.5886  137.9241  156.2918 C.ar    1  UNL1        0.0536
     29 C         139.9523  137.8539  157.7453 C.ar    1  UNL1        0.0076
     30 C         139.5613  138.9676  158.6709 C.ar    1  UNL1        0.0376
     31 C         138.8067  140.1516  158.1429 C.ar    1  UNL1        0.1453
     32 C         138.4430  140.2219  156.6894 C.ar    1  UNL1        0.0376
     33 C         138.8340  139.1081  155.7638 C.ar    1  UNL1        0.0076
     34 C         141.3310  134.6407  154.9014 C.3     1  UNL1        0.1109
     35 N         140.9400  135.7544  155.8270 N.am    1  UNL1       -0.2992
     36 C         139.9795  136.8105  155.3662 C.2     1  UNL1        0.2459
     37 O         139.4100  136.7527  153.9796 O.2     1  UNL1       -0.2701
     38 H         141.3138  135.7923  156.7370 H       1  UNL1        0.1498
@<TRIPOS>BOND
     1    34    35    1
     2    35    36   am
     3    36    37    2
     4    36    28    1
     5    28    29   ar
     6    29    30   ar
     7    30    31   ar
     8    31    27    1
     9    27    21    1
    10    21    22   ar
    11    22    23   ar
    12    23    24   ar
    13    24     1    1
    14     1     2    2
    15     1     3    2
    16     1     4    1
    17     4    15    1
    18    15    16    2
    19    15    17   am
    20    17    18    1
    21     4     5    1
    22     5     6    1
    23     6     7    1
    24     7     8    1
    25     8     9    1
    26     9    10    1
    27    10    11    1
    28    11    12    1
    29     7    13    1
    30    24    25   ar
    31    25    26   ar
    32    31    32   ar
    33    32    33   ar
    34    33    28   ar
    35    26    21   ar
    36    13     4    1
    37    12     7    1
    38    35    38    1
    39    17    19    1
    40    18    20    1
    41    10    14    1
@<TRIPOS>MOLECULE
*****
 38 41 0 0 0
SMALL
GASTEIGER

@<TRIPOS>ATOM
      1 S         141.5919  139.3830  164.9159 S.O2    1  UNL1        0.0134
      2 O         141.7317  138.0458  165.0373 O.2     1  UNL1       -0.1683
      3 O         141.4918  140.8477  164.6076 O.2     1  UNL1       -0.1683
      4 C         141.1323  139.6469  166.3191 C.3     1  UNL1        0.1845
      5 C         142.6003  139.6815  166.6258 C.3     1  UNL1        0.0313
      6 C         142.7611  139.9480  168.0931 C.3     1  UNL1        0.0024
      7 C         141.3925  140.0782  168.6934 C.3     1  UNL1        0.0048
      8 C         139.9674  140.1827  169.1494 C.3     1  UNL1        0.0172
      9 C         139.6596  140.4517  170.5926 C.3     1  UNL1        0.0686
     10 N         140.7769  140.6162  171.5798 N.3     1  UNL1       -0.2975
     11 C         142.2020  140.5116  171.1238 C.3     1  UNL1        0.0686
     12 C         142.5099  140.2426  169.6806 C.3     1  UNL1        0.0172
     13 C         140.3859  139.8921  167.5970 C.3     1  UNL1        0.0314
     14 H         140.6440  139.9027  172.2965 H       1  UNL1        0.1232
     15 C         139.7605  139.5572  165.7192 C.2     1  UNL1        0.2644
     16 O         139.1122  138.4361  165.3380 O.2     1  UNL1       -0.2713
     17 N         138.9603  140.8045  165.4869 N.am    1  UNL1       -0.1956
     18 O         137.5885  140.7147  164.8870 O.3     1  UNL1       -0.2951
     19 H         139.3356  141.6821  165.7282 H       1  UNL1        0.1823
     20 H         137.3732  139.7856  164.7100 H       1  UNL1        0.2414
     21 C         142.9706  138.5913  160.7061 C.ar    1  UNL1        0.1454
     22 C         141.9596  137.6873  161.3467 C.ar    1  UNL1        0.0388
     23 C         141.5000  137.9512  162.7500 C.ar    1  UNL1        0.0215
     24 C         142.0515  139.1191  163.5126 C.ar    1  UNL1        0.1063
     25 C         143.0626  140.0232  162.8721 C.ar    1  UNL1        0.0215
     26 C         143.5222  139.7593  161.4688 C.ar    1  UNL1        0.0388
     27 O         143.4302  138.3274  159.3029 O.3     1  UNL1       -0.4535
     28 C         140.4145  137.5220  156.0614 C.ar    1  UNL1        0.0536
     29 C         141.5879  136.6046  156.2389 C.ar    1  UNL1        0.0076
     30 C         142.5931  136.8731  157.3194 C.ar    1  UNL1        0.0376
     31 C         142.4249  138.0590  158.2224 C.ar    1  UNL1        0.1453
     32 C         141.2516  138.9764  158.0449 C.ar    1  UNL1        0.0376
     33 C         140.2464  138.7079  156.9644 C.ar    1  UNL1        0.0076
     34 C         137.0177  137.5478  154.0093 C.3     1  UNL1        0.1109
     35 N         138.0230  137.8162  155.0897 N.am    1  UNL1       -0.2992
     36 C         139.4093  137.2536  154.9810 C.2     1  UNL1        0.2459
     37 O         139.7902  136.4226  153.7916 O.2     1  UNL1       -0.2701
     38 H         137.7730  138.3615  155.8703 H       1  UNL1        0.1498
@<TRIPOS>BOND
     1    34    35    1
     2    35    36   am
     3    36    37    2
     4    36    28    1
     5    28    29   ar
     6    29    30   ar
     7    30    31   ar
     8    31    27    1
     9    27    21    1
    10    21    22   ar
    11    22    23   ar
    12    23    24   ar
    13    24     1    1
    14     1     2    2
    15     1     3    2
    16     1     4    1
    17     4    15    1
    18    15    16    2
    19    15    17   am
    20    17    18    1
    21     4     5    1
    22     5     6    1
    23     6     7    1
    24     7     8    1
    25     8     9    1
    26     9    10    1
    27    10    11    1
    28    11    12    1
    29     7    13    1
    30    24    25   ar
    31    25    26   ar
    32    31    32   ar
    33    32    33   ar
    34    33    28   ar
    35    26    21   ar
    36    13     4    1
    37    12     7    1
    38    35    38    1
    39    17    19    1
    40    18    20    1
    41    10    14    1
@<TRIPOS>MOLECULE
*****
 38 41 0 0 0
SMALL
GASTEIGER

@<TRIPOS>ATOM
      1 S         139.9033  141.1755  164.2548 S.O2    1  UNL1        0.0134
      2 O         138.5691  141.0775  164.0743 O.2     1  UNL1       -0.1683
      3 O         141.3973  141.3089  164.2742 O.2     1  UNL1       -0.1683
      4 C         139.9013  140.9827  165.7423 C.3     1  UNL1        0.1845
      5 C         140.2601  142.4388  165.7735 C.3     1  UNL1        0.0313
      6 C         140.4049  142.8499  167.2088 C.3     1  UNL1        0.0024
      7 C         140.1355  141.6479  168.0648 C.3     1  UNL1        0.0048
      8 C         139.8425  140.3665  168.7873 C.3     1  UNL1        0.0172
      9 C         139.8782  140.3256  170.2863 C.3     1  UNL1        0.0686
     10 N         140.2067  141.5662  171.0628 N.3     1  UNL1       -0.2975
     11 C         140.4997  142.8477  170.3402 C.3     1  UNL1        0.0686
     12 C         140.4641  142.8885  168.8413 C.3     1  UNL1        0.0172
     13 C         139.8242  140.4939  167.1585 C.3     1  UNL1        0.0314
     14 H         141.0291  141.3515  171.6266 H       1  UNL1        0.1232
     15 C         139.5429  139.5669  165.4003 C.2     1  UNL1        0.2644
     16 O         138.3557  138.9574  165.6044 O.2     1  UNL1       -0.2713
     17 N         140.5600  138.6694  164.7602 N.am    1  UNL1       -0.1956
     18 O         140.2015  137.2535  164.4182 O.3     1  UNL1       -0.2951
     19 H         141.4629  139.0095  164.5645 H       1  UNL1        0.1823
     20 H         139.2819  137.0819  164.6748 H       1  UNL1        0.2414
     21 C         139.9096  141.7539  159.7922 C.ar    1  UNL1        0.1454
     22 C         138.7276  142.1943  160.6039 C.ar    1  UNL1        0.0388
     23 C         138.7256  142.0015  162.0914 C.ar    1  UNL1        0.0215
     24 C         139.9054  141.3683  162.7673 C.ar    1  UNL1        0.1063
     25 C         141.0875  140.9279  161.9556 C.ar    1  UNL1        0.0215
     26 C         141.0896  141.1207  160.4681 C.ar    1  UNL1        0.0388
     27 O         139.9117  141.9467  158.3047 O.3     1  UNL1       -0.4535
     28 C         139.5237  146.0813  156.5711 C.ar    1  UNL1        0.0536
     29 C         138.8431  144.9221  155.9055 C.ar    1  UNL1        0.0076
     30 C         138.9724  143.5439  156.4834 C.ar    1  UNL1        0.0376
     31 C         139.7824  143.3250  157.7268 C.ar    1  UNL1        0.1453
     32 C         140.4630  144.4842  158.3923 C.ar    1  UNL1        0.0376
     33 C         140.3336  145.8624  157.8145 C.ar    1  UNL1        0.0076
     34 C         138.4733  149.8843  156.1419 C.3     1  UNL1        0.1109
     35 N         138.6026  148.5060  156.7197 N.am    1  UNL1       -0.2992
     36 C         139.3944  147.4594  155.9933 C.2     1  UNL1        0.2459
     37 O         140.0568  147.7911  154.6889 O.2     1  UNL1       -0.2701
     38 H         138.1678  148.2884  157.5758 H       1  UNL1        0.1498
@<TRIPOS>BOND
     1    34    35    1
     2    35    36   am
     3    36    37    2
     4    36    28    1
     5    28    29   ar
     6    29    30   ar
     7    30    31   ar
     8    31    27    1
     9    27    21    1
    10    21    22   ar
    11    22    23   ar
    12    23    24   ar
    13    24     1    1
    14     1     2    2
    15     1     3    2
    16     1     4    1
    17     4    15    1
    18    15    16    2
    19    15    17   am
    20    17    18    1
    21     4     5    1
    22     5     6    1
    23     6     7    1
    24     7     8    1
    25     8     9    1
    26     9    10    1
    27    10    11    1
    28    11    12    1
    29     7    13    1
    30    24    25   ar
    31    25    26   ar
    32    31    32   ar
    33    32    33   ar
    34    33    28   ar
    35    26    21   ar
    36    13     4    1
    37    12     7    1
    38    35    38    1
    39    17    19    1
    40    18    20    1
    41    10    14    1
@<TRIPOS>MOLECULE
*****
 38 41 0 0 0
SMALL
GASTEIGER

@<TRIPOS>ATOM
      1 S         141.1310  138.9275  163.2672 S.O2    1  UNL1        0.0134
      2 O         141.2191  137.5877  163.4077 O.2     1  UNL1       -0.1683
      3 O         141.0898  140.3906  162.9388 O.2     1  UNL1       -0.1683
      4 C         140.6640  139.2272  164.6607 C.3     1  UNL1        0.1845
      5 C         142.1202  139.1166  165.0037 C.3     1  UNL1        0.0313
      6 C         142.2691  139.3580  166.4767 C.3     1  UNL1        0.0024
      7 C         140.9050  139.6178  167.0441 C.3     1  UNL1        0.0048
      8 C         139.4857  139.8584  167.4657 C.3     1  UNL1        0.0172
      9 C         139.1692  140.1481  168.9030 C.3     1  UNL1        0.0686
     10 N         140.2720  140.1972  169.9187 N.3     1  UNL1       -0.2975
     11 C         141.6912  139.9566  169.4971 C.3     1  UNL1        0.0686
     12 C         142.0077  139.6669  168.0598 C.3     1  UNL1        0.0172
     13 C         139.9130  139.5369  165.9218 C.3     1  UNL1        0.0314
     14 H         140.0521  139.4961  170.6262 H       1  UNL1        0.1232
     15 C         139.3056  139.2751  164.0266 C.2     1  UNL1        0.2644
     16 O         138.6449  138.2527  163.4429 O.2     1  UNL1       -0.2713
     17 N         138.5358  140.5622  163.9987 N.am    1  UNL1       -0.1956
     18 O         137.1773  140.6100  163.3645 O.3     1  UNL1       -0.2951
     19 H         138.9221  141.3756  164.3968 H       1  UNL1        0.1823
     20 H         136.9482  139.7311  163.0241 H       1  UNL1        0.2414
     21 C         142.5320  138.0284  159.0865 C.ar    1  UNL1        0.1454
     22 C         143.3762  137.6332  160.2616 C.ar    1  UNL1        0.0388
     23 C         142.9092  137.9329  161.6552 C.ar    1  UNL1        0.0215
     24 C         141.5980  138.6278  161.8736 C.ar    1  UNL1        0.1063
     25 C         140.7537  139.0230  160.6985 C.ar    1  UNL1        0.0215
     26 C         141.2207  138.7233  159.3049 C.ar    1  UNL1        0.0388
     27 O         142.9990  137.7287  157.6929 O.3     1  UNL1       -0.4535
     28 C         141.9863  133.7832  155.7801 C.ar    1  UNL1        0.0536
     29 C         141.2988  135.0361  155.3244 C.ar    1  UNL1        0.0076
     30 C         141.6364  136.3512  155.9620 C.ar    1  UNL1        0.0376
     31 C         142.6614  136.4135  157.0553 C.ar    1  UNL1        0.1453
     32 C         143.3490  135.1606  157.5110 C.ar    1  UNL1        0.0376
     33 C         143.0114  133.8455  156.8735 C.ar    1  UNL1        0.0076
     34 C         141.7206  129.8711  155.1680 C.3     1  UNL1        0.1109
     35 N         142.0581  131.1863  155.8055 N.am    1  UNL1       -0.2992
     36 C         141.6488  132.4681  155.1426 C.2     1  UNL1        0.2459
     37 O         140.9021  132.4347  153.8421 O.2     1  UNL1       -0.2701
     38 H         142.5482  131.2082  156.6591 H       1  UNL1        0.1498
@<TRIPOS>BOND
     1    34    35    1
     2    35    36   am
     3    36    37    2
     4    36    28    1
     5    28    29   ar
     6    29    30   ar
     7    30    31   ar
     8    31    27    1
     9    27    21    1
    10    21    22   ar
    11    22    23   ar
    12    23    24   ar
    13    24     1    1
    14     1     2    2
    15     1     3    2
    16     1     4    1
    17     4    15    1
    18    15    16    2
    19    15    17   am
    20    17    18    1
    21     4     5    1
    22     5     6    1
    23     6     7    1
    24     7     8    1
    25     8     9    1
    26     9    10    1
    27    10    11    1
    28    11    12    1
    29     7    13    1
    30    24    25   ar
    31    25    26   ar
    32    31    32   ar
    33    32    33   ar
    34    33    28   ar
    35    26    21   ar
    36    13     4    1
    37    12     7    1
    38    35    38    1
    39    17    19    1
    40    18    20    1
    41    10    14    1
@<TRIPOS>MOLECULE
*****
 38 41 0 0 0
SMALL
GASTEIGER

@<TRIPOS>ATOM
      1 S         142.9767  140.3952  164.9369 S.O2    1  UNL1        0.0134
      2 O         144.3144  140.5380  164.8240 O.2     1  UNL1       -0.1683
      3 O         141.4963  140.1567  164.8977 O.2     1  UNL1       -0.1683
      4 C         142.8376  141.0362  166.2859 C.3     1  UNL1        0.1845
      5 C         142.7340  139.6213  166.7732 C.3     1  UNL1        0.0313
      6 C         142.5586  139.6557  168.2625 C.3     1  UNL1        0.0024
      7 C         142.5539  141.0918  168.6958 C.3     1  UNL1        0.0048
      8 C         142.5682  142.5650  168.9776 C.3     1  UNL1        0.0172
      9 C         142.4175  143.0608  170.3852 C.3     1  UNL1        0.0686
     10 N         142.2524  142.0834  171.5110 N.3     1  UNL1       -0.2975
     11 C         142.2380  140.6102  171.2292 C.3     1  UNL1        0.0686
     12 C         142.3888  140.1144  169.8216 C.3     1  UNL1        0.0172
     13 C         142.7263  141.9450  167.4741 C.3     1  UNL1        0.0314
     14 H         141.3666  142.3049  171.9657 H       1  UNL1        0.1232
     15 C         142.9703  142.3171  165.5167 C.2     1  UNL1        0.2644
     16 O         142.0844  142.8326  164.6381 O.2     1  UNL1       -0.2713
     17 N         144.1905  143.1724  165.6887 N.am    1  UNL1       -0.1956
     18 O         144.3231  144.4533  164.9194 O.3     1  UNL1       -0.2951
     19 H         144.9044  142.8930  166.3064 H       1  UNL1        0.1823
     20 H         143.5393  144.5781  164.3618 H       1  UNL1        0.2414
     21 C         143.3939  138.4723  160.8900 C.ar    1  UNL1        0.1454
     22 C         142.5062  137.8514  161.9274 C.ar    1  UNL1        0.0388
     23 C         142.3671  138.4924  163.2764 C.ar    1  UNL1        0.0215
     24 C         143.1158  139.7542  163.5880 C.ar    1  UNL1        0.1063
     25 C         144.0036  140.3751  162.5505 C.ar    1  UNL1        0.0215
     26 C         144.1427  139.7342  161.2016 C.ar    1  UNL1        0.0388
     27 O         143.5330  137.8313  159.5410 O.3     1  UNL1       -0.4535
     28 C         140.1547  138.0692  156.5778 C.ar    1  UNL1        0.0536
     29 C         140.1901  139.0028  157.7513 C.ar    1  UNL1        0.0076
     30 C         141.3162  138.9235  158.7390 C.ar    1  UNL1        0.0376
     31 C         142.4069  137.9106  158.5532 C.ar    1  UNL1        0.1453
     32 C         142.3715  136.9770  157.3797 C.ar    1  UNL1        0.0376
     33 C         141.2454  137.0564  156.3920 C.ar    1  UNL1        0.0076
     34 C         136.9287  139.3670  154.6650 C.3     1  UNL1        0.1109
     35 N         138.0548  139.2876  155.6528 N.am    1  UNL1       -0.2992
     36 C         139.0287  138.1485  155.5901 C.2     1  UNL1        0.2459
     37 O         138.8764  137.0887  154.5395 O.2     1  UNL1       -0.2701
     38 H         138.1547  139.9833  156.3422 H       1  UNL1        0.1498
@<TRIPOS>BOND
     1    34    35    1
     2    35    36   am
     3    36    37    2
     4    36    28    1
     5    28    29   ar
     6    29    30   ar
     7    30    31   ar
     8    31    27    1
     9    27    21    1
    10    21    22   ar
    11    22    23   ar
    12    23    24   ar
    13    24     1    1
    14     1     2    2
    15     1     3    2
    16     1     4    1
    17     4    15    1
    18    15    16    2
    19    15    17   am
    20    17    18    1
    21     4     5    1
    22     5     6    1
    23     6     7    1
    24     7     8    1
    25     8     9    1
    26     9    10    1
    27    10    11    1
    28    11    12    1
    29     7    13    1
    30    24    25   ar
    31    25    26   ar
    32    31    32   ar
    33    32    33   ar
    34    33    28   ar
    35    26    21   ar
    36    13     4    1
    37    12     7    1
    38    35    38    1
    39    17    19    1
    40    18    20    1
    41    10    14    1
@<TRIPOS>MOLECULE
*****
 38 41 0 0 0
SMALL
GASTEIGER

@<TRIPOS>ATOM
      1 S         140.6783  140.1211  164.2337 S.O2    1  UNL1        0.0134
      2 O         140.0276  138.9623  163.9964 O.2     1  UNL1       -0.1683
      3 O         141.4264  141.4186  164.3163 O.2     1  UNL1       -0.1683
      4 C         140.5184  140.1184  165.7252 C.3     1  UNL1        0.1845
      5 C         141.9972  139.8668  165.7256 C.3     1  UNL1        0.0313
      6 C         142.4490  139.7613  167.1520 C.3     1  UNL1        0.0024
      7 C         141.2495  139.9477  168.0333 C.3     1  UNL1        0.0048
      8 C         139.9662  140.1510  168.7828 C.3     1  UNL1        0.0172
      9 C         139.9609  140.1219  170.2824 C.3     1  UNL1        0.0686
     10 N         141.2389  139.8895  171.0326 N.3     1  UNL1       -0.2975
     11 C         142.5222  139.6862  170.2831 C.3     1  UNL1        0.0686
     12 C         142.5275  139.7153  168.7835 C.3     1  UNL1        0.0172
     13 C         140.0563  140.1684  167.1514 C.3     1  UNL1        0.0314
     14 H         141.0971  139.0571  171.6050 H       1  UNL1        0.1232
     15 C         139.0731  140.3705  165.4131 C.2     1  UNL1        0.2644
     16 O         138.0292  139.5597  165.6876 O.2     1  UNL1       -0.2713
     17 N         138.6648  141.6380  164.7226 N.am    1  UNL1       -0.1956
     18 O         137.2195  141.8900  164.4106 O.3     1  UNL1       -0.2951
     19 H         139.3455  142.3045  164.4743 H       1  UNL1        0.1823
     20 H         136.6865  141.1408  164.7196 H       1  UNL1        0.2414
     21 C         141.1580  140.1291  159.7594 C.ar    1  UNL1        0.1454
     22 C         141.5220  141.3475  160.5550 C.ar    1  UNL1        0.0388
     23 C         141.3621  141.3448  162.0464 C.ar    1  UNL1        0.0215
     24 C         140.8382  140.1237  162.7423 C.ar    1  UNL1        0.1063
     25 C         140.4741  138.9053  161.9468 C.ar    1  UNL1        0.0215
     26 C         140.6340  138.9080  160.4554 C.ar    1  UNL1        0.0388
     27 O         141.3178  140.1318  158.2680 O.3     1  UNL1       -0.4535
     28 C         141.2886  136.2482  155.9949 C.ar    1  UNL1        0.0536
     29 C         142.5268  136.6825  156.7216 C.ar    1  UNL1        0.0076
     30 C         142.5365  137.9770  157.4793 C.ar    1  UNL1        0.0376
     31 C         141.3081  138.8372  157.5103 C.ar    1  UNL1        0.1453
     32 C         140.0698  138.4029  156.7836 C.ar    1  UNL1        0.0376
     33 C         140.0601  137.1083  156.0259 C.ar    1  UNL1        0.0076
     34 C         141.6116  132.3776  155.1798 C.3     1  UNL1        0.1109
     35 N         141.6214  133.6722  155.9374 N.am    1  UNL1       -0.2992
     36 C         141.2788  134.9537  155.2372 C.2     1  UNL1        0.2459
     37 O         140.9263  134.9406  153.7792 O.2     1  UNL1       -0.2701
     38 H         141.8528  133.6807  156.8943 H       1  UNL1        0.1498
@<TRIPOS>BOND
     1    34    35    1
     2    35    36   am
     3    36    37    2
     4    36    28    1
     5    28    29   ar
     6    29    30   ar
     7    30    31   ar
     8    31    27    1
     9    27    21    1
    10    21    22   ar
    11    22    23   ar
    12    23    24   ar
    13    24     1    1
    14     1     2    2
    15     1     3    2
    16     1     4    1
    17     4    15    1
    18    15    16    2
    19    15    17   am
    20    17    18    1
    21     4     5    1
    22     5     6    1
    23     6     7    1
    24     7     8    1
    25     8     9    1
    26     9    10    1
    27    10    11    1
    28    11    12    1
    29     7    13    1
    30    24    25   ar
    31    25    26   ar
    32    31    32   ar
    33    32    33   ar
    34    33    28   ar
    35    26    21   ar
    36    13     4    1
    37    12     7    1
    38    35    38    1
    39    17    19    1
    40    18    20    1
    41    10    14    1
@<TRIPOS>MOLECULE
*****
 38 41 0 0 0
SMALL
GASTEIGER

@<TRIPOS>ATOM
      1 S         139.6930  141.7250  164.8832 S.O2    1  UNL1        0.0134
      2 O         140.8748  141.2342  164.4530 O.2     1  UNL1       -0.1683
      3 O         138.3554  142.3308  165.1901 O.2     1  UNL1       -0.1683
      4 C         139.8112  141.2652  166.3060 C.3     1  UNL1        0.1845
      5 C         140.3183  142.6560  166.5481 C.3     1  UNL1        0.0313
      6 C         140.6387  142.7851  168.0078 C.3     1  UNL1        0.0024
      7 C         140.3296  141.4741  168.6679 C.3     1  UNL1        0.0048
      8 C         139.9765  140.1116  169.1864 C.3     1  UNL1        0.0172
      9 C         140.1486  139.7954  170.6426 C.3     1  UNL1        0.0686
     10 N         140.6739  140.8418  171.5802 N.3     1  UNL1       -0.2975
     11 C         141.0270  142.2043  171.0618 C.3     1  UNL1        0.0686
     12 C         140.8548  142.5204  169.6056 C.3     1  UNL1        0.0172
     13 C         139.8182  140.5347  167.6162 C.3     1  UNL1        0.0314
     14 H         141.5194  140.4598  172.0040 H       1  UNL1        0.1232
     15 C         139.2794  139.9705  165.7667 C.2     1  UNL1        0.2644
     16 O         138.0096  139.7073  165.3911 O.2     1  UNL1       -0.2713
     17 N         140.1961  138.7954  165.5974 N.am    1  UNL1       -0.1956
     18 O         139.6642  137.5008  165.0580 O.3     1  UNL1       -0.2951
     19 H         141.1469  138.8739  165.8403 H       1  UNL1        0.1823
     20 H         138.7169  137.5933  164.8710 H       1  UNL1        0.2414
     21 C         139.3384  143.1043  160.6145 C.ar    1  UNL1        0.1454
     22 C         140.6924  142.9129  161.2309 C.ar    1  UNL1        0.0388
     23 C         140.8106  142.4531  162.6537 C.ar    1  UNL1        0.0215
     24 C         139.5748  142.1847  163.4603 C.ar    1  UNL1        0.1063
     25 C         138.2207  142.3762  162.8440 C.ar    1  UNL1        0.0215
     26 C         138.1025  142.8359  161.4211 C.ar    1  UNL1        0.0388
     27 O         139.2203  143.5641  159.1916 O.3     1  UNL1       -0.4535
     28 C         137.5997  140.7757  156.0533 C.ar    1  UNL1        0.0536
     29 C         138.5260  140.2558  157.1123 C.ar    1  UNL1        0.0076
     30 C         139.0662  141.1852  158.1584 C.ar    1  UNL1        0.0376
     31 C         138.6800  142.6346  158.1455 C.ar    1  UNL1        0.1453
     32 C         137.7537  143.1546  157.0865 C.ar    1  UNL1        0.0376
     33 C         137.2135  142.2251  156.0404 C.ar    1  UNL1        0.0076
     34 C         136.9937  137.4950  153.9039 C.3     1  UNL1        0.1109
     35 N         137.5338  138.4245  154.9500 N.am    1  UNL1       -0.2992
     36 C         137.0595  139.8464  155.0072 C.2     1  UNL1        0.2459
     37 O         136.0448  140.3388  154.0182 O.2     1  UNL1       -0.2701
     38 H         138.1998  138.1013  155.5991 H       1  UNL1        0.1498
@<TRIPOS>BOND
     1    34    35    1
     2    35    36   am
     3    36    37    2
     4    36    28    1
     5    28    29   ar
     6    29    30   ar
     7    30    31   ar
     8    31    27    1
     9    27    21    1
    10    21    22   ar
    11    22    23   ar
    12    23    24   ar
    13    24     1    1
    14     1     2    2
    15     1     3    2
    16     1     4    1
    17     4    15    1
    18    15    16    2
    19    15    17   am
    20    17    18    1
    21     4     5    1
    22     5     6    1
    23     6     7    1
    24     7     8    1
    25     8     9    1
    26     9    10    1
    27    10    11    1
    28    11    12    1
    29     7    13    1
    30    24    25   ar
    31    25    26   ar
    32    31    32   ar
    33    32    33   ar
    34    33    28   ar
    35    26    21   ar
    36    13     4    1
    37    12     7    1
    38    35    38    1
    39    17    19    1
    40    18    20    1
    41    10    14    1
