@<TRIPOS>MOLECULE
*****
 29 31 0 0 0
SMALL
GASTEIGER

@<TRIPOS>ATOM
      1 C         140.2409  144.4034  163.3366 C.ar    1  UNL1        0.0519
      2 C         140.8749  144.7628  162.0256 C.ar    1  UNL1        0.0853
      3 C         142.3010  144.3856  161.7537 C.ar    1  UNL1        0.1045
      4 N         143.0932  143.6491  162.7929 N.ar    1  UNL1       -0.2436
      5 C         142.4592  143.2897  164.1041 C.ar    1  UNL1        0.0825
      6 C         143.2513  142.5531  165.1433 C.ar    1  UNL1        0.0191
      7 C         142.6174  142.1938  166.4543 C.ar    1  UNL1        0.0015
      8 C         141.1912  142.5710  166.7262 C.ar    1  UNL1        0.0002
      9 C         140.3991  143.3075  165.6870 C.ar    1  UNL1        0.0027
     10 C         141.0331  143.6669  164.3759 C.ar    1  UNL1        0.0309
     11 C         140.5573  142.2116  168.0373 C.ar    1  UNL1        0.0031
     12 C         139.9755  140.8439  168.2392 C.ar    1  UNL1        0.0207
     13 C         139.3415  140.4845  169.5503 C.ar    1  UNL1        0.0989
     14 N         139.2894  141.4929  170.6595 N.ar    1  UNL1       -0.2423
     15 C         139.8711  142.8607  170.4576 C.ar    1  UNL1        0.0989
     16 C         140.5051  143.2200  169.1465 C.ar    1  UNL1        0.0207
     17 C         140.0828  145.4993  160.9863 C.2     1  UNL1        0.2455
     18 N         140.1312  145.0574  159.5537 N.am    1  UNL1       -0.3252
     19 O         139.2422  146.6778  161.3796 O.2     1  UNL1       -0.2703
     20 H         140.6829  144.2840  159.2955 H       1  UNL1        0.1453
     21 H         139.6114  145.5408  158.8716 H       1  UNL1        0.1453
     22 N         138.8148  144.7806  163.6085 N.pl3   1  UNL1       -0.3325
     23 H         138.6108  145.5828  164.1415 H       1  UNL1        0.1468
     24 C         137.6994  143.9356  163.0681 C.3     1  UNL1        0.0870
     25 C         137.7599  142.4423  163.1968 C.3     1  UNL1        0.0195
     26 C         138.2390  140.4125  164.7461 C.3     1  UNL1        0.0001
     27 C         137.7127  141.8039  164.5532 C.3     1  UNL1        0.0017
     28 C         137.8675  141.5875  161.9688 C.3     1  UNL1        0.0017
     29 C         138.4193  142.1648  160.6991 C.3     1  UNL1        0.0001
@<TRIPOS>BOND
     1    26    27    1
     2    27    25    1
     3    25    28    1
     4    28    29    1
     5    25    24    1
     6    24    22    1
     7    22     1    1
     8     1     2   ar
     9     2    17    1
    10    17    18   am
    11    17    19    2
    12     2     3   ar
    13     3     4   ar
    14     4     5   ar
    15     5     6   ar
    16     6     7   ar
    17     7     8   ar
    18     8    11    1
    19    11    12   ar
    20    12    13   ar
    21    13    14   ar
    22    14    15   ar
    23    15    16   ar
    24     8     9   ar
    25     9    10   ar
    26    10     1   ar
    27    10     5   ar
    28    16    11   ar
    29    22    23    1
    30    18    20    1
    31    18    21    1
@<TRIPOS>MOLECULE
*****
 29 31 0 0 0
SMALL
GASTEIGER

@<TRIPOS>ATOM
      1 C         141.1941  140.4186  168.3608 C.ar    1  UNL1        0.0519
      2 C         140.7548  140.7365  169.7593 C.ar    1  UNL1        0.0853
      3 C         139.3678  140.3835  170.2083 C.ar    1  UNL1        0.1045
      4 N         138.4202  139.7125  169.2588 N.ar    1  UNL1       -0.2436
      5 C         138.8595  139.3945  167.8602 C.ar    1  UNL1        0.0825
      6 C         137.9118  138.7235  166.9107 C.ar    1  UNL1        0.0191
      7 C         138.3511  138.4056  165.5122 C.ar    1  UNL1        0.0015
      8 C         139.7381  138.7586  165.0632 C.ar    1  UNL1        0.0002
      9 C         140.6858  139.4296  166.0127 C.ar    1  UNL1        0.0027
     10 C         140.2465  139.7476  167.4112 C.ar    1  UNL1        0.0309
     11 C         140.1774  138.4407  163.6646 C.ar    1  UNL1        0.0031
     12 C         141.6308  138.2198  163.3669 C.ar    1  UNL1        0.0207
     13 C         142.0701  137.9019  161.9683 C.ar    1  UNL1        0.0989
     14 N         141.0559  137.8047  160.8674 N.ar    1  UNL1       -0.2423
     15 C         139.6024  138.0256  161.1652 C.ar    1  UNL1        0.0989
     16 C         139.1632  138.3435  162.5637 C.ar    1  UNL1        0.0207
     17 C         141.7025  141.4076  170.7089 C.2     1  UNL1        0.2455
     18 N         142.5566  140.5819  171.6247 N.am    1  UNL1       -0.3252
     19 O         141.7961  142.9042  170.7427 O.2     1  UNL1       -0.2703
     20 H         142.4952  139.5995  171.6025 H       1  UNL1        0.1453
     21 H         143.1786  141.0223  172.2479 H       1  UNL1        0.1453
     22 N         142.5811  140.7717  167.9118 N.pl3   1  UNL1       -0.3325
     23 H         143.3108  140.1176  168.0068 H       1  UNL1        0.1468
     24 C         142.8564  142.1214  167.3180 C.3     1  UNL1        0.0870
     25 C         142.7834  142.3162  165.8325 C.3     1  UNL1        0.0195
     26 C         140.3384  143.1642  166.0628 C.3     1  UNL1        0.0001
     27 C         141.5343  142.8642  165.2084 C.3     1  UNL1        0.0017
     28 C         143.9595  141.9630  164.9710 C.3     1  UNL1        0.0017
     29 C         144.1932  140.5370  164.5688 C.3     1  UNL1        0.0001
@<TRIPOS>BOND
     1    26    27    1
     2    27    25    1
     3    25    28    1
     4    28    29    1
     5    25    24    1
     6    24    22    1
     7    22     1    1
     8     1     2   ar
     9     2    17    1
    10    17    18   am
    11    17    19    2
    12     2     3   ar
    13     3     4   ar
    14     4     5   ar
    15     5     6   ar
    16     6     7   ar
    17     7     8   ar
    18     8    11    1
    19    11    12   ar
    20    12    13   ar
    21    13    14   ar
    22    14    15   ar
    23    15    16   ar
    24     8     9   ar
    25     9    10   ar
    26    10     1   ar
    27    10     5   ar
    28    16    11   ar
    29    22    23    1
    30    18    20    1
    31    18    21    1
@<TRIPOS>MOLECULE
*****
 29 31 0 0 0
SMALL
GASTEIGER

@<TRIPOS>ATOM
      1 C         141.5059  139.0299  164.2277 C.ar    1  UNL1        0.0519
      2 C         141.1839  138.2863  162.9654 C.ar    1  UNL1        0.0853
      3 C         139.8444  137.6313  162.8017 C.ar    1  UNL1        0.1045
      4 N         138.8269  137.7200  163.9002 N.ar    1  UNL1       -0.2436
      5 C         139.1489  138.4637  165.1625 C.ar    1  UNL1        0.0825
      6 C         138.1313  138.5524  166.2610 C.ar    1  UNL1        0.0191
      7 C         138.4533  139.2960  167.5232 C.ar    1  UNL1        0.0015
      8 C         139.7928  139.9510  167.6870 C.ar    1  UNL1        0.0002
      9 C         140.8103  139.8623  166.5885 C.ar    1  UNL1        0.0027
     10 C         140.4884  139.1186  165.3262 C.ar    1  UNL1        0.0309
     11 C         140.1148  140.6947  168.9493 C.ar    1  UNL1        0.0031
     12 C         140.0524  142.1931  168.9737 C.ar    1  UNL1        0.0207
     13 C         140.3743  142.9368  170.2360 C.ar    1  UNL1        0.0989
     14 N         140.7586  142.1819  171.4739 N.ar    1  UNL1       -0.2423
     15 C         140.8210  140.6833  171.4495 C.ar    1  UNL1        0.0989
     16 C         140.4991  139.9398  170.1872 C.ar    1  UNL1        0.0207
     17 C         142.2015  138.1975  161.8668 C.2     1  UNL1        0.2455
     18 N         141.7763  138.3511  160.4366 N.am    1  UNL1       -0.3252
     19 O         143.6441  137.9552  162.1986 O.2     1  UNL1       -0.2703
     20 H         140.8295  138.5102  160.2189 H       1  UNL1        0.1453
     21 H         142.4441  138.2929  159.7156 H       1  UNL1        0.1453
     22 N         142.8454  139.6848  164.3914 N.pl3   1  UNL1       -0.3325
     23 H         143.5794  139.2004  164.8340 H       1  UNL1        0.1468
     24 C         143.0666  141.0779  163.8808 C.3     1  UNL1        0.0870
     25 C         142.6061  142.2548  164.6888 C.3     1  UNL1        0.0195
     26 C         144.6427  143.6206  165.5470 C.3     1  UNL1        0.0001
     27 C         143.4461  142.7597  165.8243 C.3     1  UNL1        0.0017
     28 C         141.3056  142.9267  164.3612 C.3     1  UNL1        0.0017
     29 C         140.4046  143.3952  165.4651 C.3     1  UNL1        0.0001
@<TRIPOS>BOND
     1    26    27    1
     2    27    25    1
     3    25    28    1
     4    28    29    1
     5    25    24    1
     6    24    22    1
     7    22     1    1
     8     1     2   ar
     9     2    17    1
    10    17    18   am
    11    17    19    2
    12     2     3   ar
    13     3     4   ar
    14     4     5   ar
    15     5     6   ar
    16     6     7   ar
    17     7     8   ar
    18     8    11    1
    19    11    12   ar
    20    12    13   ar
    21    13    14   ar
    22    14    15   ar
    23    15    16   ar
    24     8     9   ar
    25     9    10   ar
    26    10     1   ar
    27    10     5   ar
    28    16    11   ar
    29    22    23    1
    30    18    20    1
    31    18    21    1
@<TRIPOS>MOLECULE
*****
 29 31 0 0 0
SMALL
GASTEIGER

@<TRIPOS>ATOM
      1 C         141.0018  141.6037  168.0200 C.ar    1  UNL1        0.0519
      2 C         141.2242  141.6956  169.5006 C.ar    1  UNL1        0.0853
      3 C         140.3894  140.8732  170.4369 C.ar    1  UNL1        0.1045
      4 N         139.3322  139.9589  169.8927 N.ar    1  UNL1       -0.2436
      5 C         139.1097  139.8669  168.4121 C.ar    1  UNL1        0.0825
      6 C         138.0524  138.9526  167.8679 C.ar    1  UNL1        0.0191
      7 C         137.8300  138.8607  166.3874 C.ar    1  UNL1        0.0015
      8 C         138.6648  139.6832  165.4510 C.ar    1  UNL1        0.0002
      9 C         139.7220  140.5975  165.9952 C.ar    1  UNL1        0.0027
     10 C         139.9445  140.6894  167.4758 C.ar    1  UNL1        0.0309
     11 C         138.4423  139.5913  163.9704 C.ar    1  UNL1        0.0031
     12 C         138.7884  138.3295  163.2369 C.ar    1  UNL1        0.0207
     13 C         138.5659  138.2376  161.7563 C.ar    1  UNL1        0.0989
     14 N         137.9972  139.4075  161.0093 N.ar    1  UNL1       -0.2423
     15 C         137.6511  140.6693  161.7429 C.ar    1  UNL1        0.0989
     16 C         137.8736  140.7611  163.2234 C.ar    1  UNL1        0.0207
     17 C         142.2815  142.6100  170.0448 C.2     1  UNL1        0.2455
     18 N         143.7022  142.1388  170.1436 N.am    1  UNL1       -0.3252
     19 O         141.9181  143.9954  170.4903 O.2     1  UNL1       -0.2703
     20 H         143.9406  141.2295  169.8513 H       1  UNL1        0.1453
     21 H         144.3961  142.7389  170.5009 H       1  UNL1        0.1453
     22 N         141.8366  142.4262  167.0837 N.pl3   1  UNL1       -0.3325
     23 H         141.5420  143.3295  166.8259 H       1  UNL1        0.1468
     24 C         143.1203  141.8723  166.5402 C.3     1  UNL1        0.0870
     25 C         143.1002  140.9722  165.3404 C.3     1  UNL1        0.0195
     26 C         143.1010  138.8085  166.7785 C.3     1  UNL1        0.0001
     27 C         143.4140  139.5133  165.4919 C.3     1  UNL1        0.0017
     28 C         142.7664  141.5311  163.9890 C.3     1  UNL1        0.0017
     29 C         141.9233  140.7366  163.0361 C.3     1  UNL1        0.0001
@<TRIPOS>BOND
     1    26    27    1
     2    27    25    1
     3    25    28    1
     4    28    29    1
     5    25    24    1
     6    24    22    1
     7    22     1    1
     8     1     2   ar
     9     2    17    1
    10    17    18   am
    11    17    19    2
    12     2     3   ar
    13     3     4   ar
    14     4     5   ar
    15     5     6   ar
    16     6     7   ar
    17     7     8   ar
    18     8    11    1
    19    11    12   ar
    20    12    13   ar
    21    13    14   ar
    22    14    15   ar
    23    15    16   ar
    24     8     9   ar
    25     9    10   ar
    26    10     1   ar
    27    10     5   ar
    28    16    11   ar
    29    22    23    1
    30    18    20    1
    31    18    21    1
@<TRIPOS>MOLECULE
*****
 29 31 0 0 0
SMALL
GASTEIGER

@<TRIPOS>ATOM
      1 C         140.6082  141.6599  167.9577 C.ar    1  UNL1        0.0519
      2 C         140.3770  141.7680  169.4358 C.ar    1  UNL1        0.0853
      3 C         139.4057  140.8467  170.1123 C.ar    1  UNL1        0.1045
      4 N         138.6656  139.8173  169.3108 N.ar    1  UNL1       -0.2436
      5 C         138.8967  139.7091  167.8326 C.ar    1  UNL1        0.0825
      6 C         138.1566  138.6797  167.0311 C.ar    1  UNL1        0.0191
      7 C         138.3878  138.5716  165.5530 C.ar    1  UNL1        0.0015
      8 C         139.3591  139.4929  164.8765 C.ar    1  UNL1        0.0002
      9 C         140.0992  140.5223  165.6780 C.ar    1  UNL1        0.0027
     10 C         139.8681  140.6304  167.1561 C.ar    1  UNL1        0.0309
     11 C         139.5903  139.3847  163.3983 C.ar    1  UNL1        0.0031
     12 C         140.4450  140.3982  162.6967 C.ar    1  UNL1        0.0207
     13 C         140.6761  140.2900  161.2185 C.ar    1  UNL1        0.0989
     14 N         140.0526  139.1683  160.4420 N.ar    1  UNL1       -0.2423
     15 C         139.1978  138.1548  161.1437 C.ar    1  UNL1        0.0989
     16 C         138.9667  138.2630  162.6218 C.ar    1  UNL1        0.0207
     17 C         141.1172  142.7974  170.2373 C.2     1  UNL1        0.2455
     18 N         142.1629  142.3700  171.2241 N.am    1  UNL1       -0.3252
     19 O         140.8115  144.2542  170.0522 O.2     1  UNL1       -0.2703
     20 H         142.3635  141.4139  171.3456 H       1  UNL1        0.1453
     21 H         142.6487  143.0457  171.7502 H       1  UNL1        0.1453
     22 N         141.5795  142.5812  167.2811 N.pl3   1  UNL1       -0.3325
     23 H         141.2726  143.4480  166.9295 H       1  UNL1        0.1468
     24 C         143.0185  142.1817  167.1402 C.3     1  UNL1        0.0870
     25 C         143.6820  142.2295  165.7958 C.3     1  UNL1        0.0195
     26 C         143.8044  144.3884  164.3557 C.3     1  UNL1        0.0001
     27 C         144.4172  143.4642  165.3657 C.3     1  UNL1        0.0017
     28 C         143.6102  141.0426  164.8813 C.3     1  UNL1        0.0017
     29 C         144.8519  140.5391  164.2071 C.3     1  UNL1        0.0001
@<TRIPOS>BOND
     1    26    27    1
     2    27    25    1
     3    25    28    1
     4    28    29    1
     5    25    24    1
     6    24    22    1
     7    22     1    1
     8     1     2   ar
     9     2    17    1
    10    17    18   am
    11    17    19    2
    12     2     3   ar
    13     3     4   ar
    14     4     5   ar
    15     5     6   ar
    16     6     7   ar
    17     7     8   ar
    18     8    11    1
    19    11    12   ar
    20    12    13   ar
    21    13    14   ar
    22    14    15   ar
    23    15    16   ar
    24     8     9   ar
    25     9    10   ar
    26    10     1   ar
    27    10     5   ar
    28    16    11   ar
    29    22    23    1
    30    18    20    1
    31    18    21    1
@<TRIPOS>MOLECULE
*****
 29 31 0 0 0
SMALL
GASTEIGER

@<TRIPOS>ATOM
      1 C         143.4467  142.1731  164.1793 C.ar    1  UNL1        0.0519
      2 C         144.0881  141.8969  162.8518 C.ar    1  UNL1        0.0853
      3 C         144.6097  140.5251  162.5417 C.ar    1  UNL1        0.1045
      4 N         144.4898  139.4295  163.5592 N.ar    1  UNL1       -0.2436
      5 C         143.8484  139.7056  164.8868 C.ar    1  UNL1        0.0825
      6 C         143.7285  138.6100  165.9042 C.ar    1  UNL1        0.0191
      7 C         143.0871  138.8862  167.2317 C.ar    1  UNL1        0.0015
      8 C         142.5656  140.2580  167.5417 C.ar    1  UNL1        0.0002
      9 C         142.6855  141.3536  166.5243 C.ar    1  UNL1        0.0027
     10 C         143.3269  141.0774  165.1968 C.ar    1  UNL1        0.0309
     11 C         141.9242  140.5342  168.8693 C.ar    1  UNL1        0.0031
     12 C         142.5908  141.4559  169.8471 C.ar    1  UNL1        0.0207
     13 C         141.9494  141.7321  171.1747 C.ar    1  UNL1        0.0989
     14 N         140.6413  141.0865  171.5244 N.ar    1  UNL1       -0.2423
     15 C         139.9747  140.1647  170.5465 C.ar    1  UNL1        0.0989
     16 C         140.6162  139.8886  169.2190 C.ar    1  UNL1        0.0207
     17 C         144.2080  142.9925  161.8343 C.2     1  UNL1        0.2455
     18 N         143.9618  142.6993  160.3839 N.am    1  UNL1       -0.3252
     19 O         144.5741  144.3812  162.2671 O.2     1  UNL1       -0.2703
     20 H         143.7215  141.7878  160.0999 H       1  UNL1        0.1453
     21 H         144.0405  143.4184  159.7161 H       1  UNL1        0.1453
     22 N         142.9252  143.5449  164.4893 N.pl3   1  UNL1       -0.3325
     23 H         143.4845  144.1829  164.9887 H       1  UNL1        0.1468
     24 C         141.5514  143.9446  164.0386 C.3     1  UNL1        0.0870
     25 C         140.3445  143.2817  164.6334 C.3     1  UNL1        0.0195
     26 C         139.2999  140.9320  165.0048 C.3     1  UNL1        0.0001
     27 C         139.8587  141.9741  164.0819 C.3     1  UNL1        0.0017
     28 C         139.6233  143.9264  165.7798 C.3     1  UNL1        0.0017
     29 C         138.5333  144.9225  165.5153 C.3     1  UNL1        0.0001
@<TRIPOS>BOND
     1    26    27    1
     2    27    25    1
     3    25    28    1
     4    28    29    1
     5    25    24    1
     6    24    22    1
     7    22     1    1
     8     1     2   ar
     9     2    17    1
    10    17    18   am
    11    17    19    2
    12     2     3   ar
    13     3     4   ar
    14     4     5   ar
    15     5     6   ar
    16     6     7   ar
    17     7     8   ar
    18     8    11    1
    19    11    12   ar
    20    12    13   ar
    21    13    14   ar
    22    14    15   ar
    23    15    16   ar
    24     8     9   ar
    25     9    10   ar
    26    10     1   ar
    27    10     5   ar
    28    16    11   ar
    29    22    23    1
    30    18    20    1
    31    18    21    1
@<TRIPOS>MOLECULE
*****
 29 31 0 0 0
SMALL
GASTEIGER

@<TRIPOS>ATOM
      1 C         139.7997  142.2041  163.7855 C.ar    1  UNL1        0.0519
      2 C         140.1290  142.2883  162.3245 C.ar    1  UNL1        0.0853
      3 C         141.5541  142.4488  161.8849 C.ar    1  UNL1        0.1045
      4 N         142.6500  142.5251  162.9063 N.ar    1  UNL1       -0.2436
      5 C         142.3207  142.4409  164.3674 C.ar    1  UNL1        0.0825
      6 C         143.4166  142.5172  165.3887 C.ar    1  UNL1        0.0191
      7 C         143.0873  142.4330  166.8497 C.ar    1  UNL1        0.0015
      8 C         141.6622  142.2725  167.2893 C.ar    1  UNL1        0.0002
      9 C         140.5663  142.1962  166.2679 C.ar    1  UNL1        0.0027
     10 C         140.8956  142.2804  164.8069 C.ar    1  UNL1        0.0309
     11 C         141.3330  142.1883  168.7503 C.ar    1  UNL1        0.0031
     12 C         142.0711  141.2243  169.6311 C.ar    1  UNL1        0.0207
     13 C         141.7418  141.1401  171.0922 C.ar    1  UNL1        0.0989
     14 N         140.6745  142.0200  171.6723 N.ar    1  UNL1       -0.2423
     15 C         139.9363  142.9840  170.7914 C.ar    1  UNL1        0.0989
     16 C         140.2656  143.0682  169.3305 C.ar    1  UNL1        0.0207
     17 C         139.0331  142.2120  161.3031 C.2     1  UNL1        0.2455
     18 N         139.1882  141.3279  160.1013 N.am    1  UNL1       -0.3252
     19 O         137.7822  143.0198  161.4834 O.2     1  UNL1       -0.2703
     20 H         140.0093  140.7977  159.9829 H       1  UNL1        0.1453
     21 H         138.4690  141.2778  159.4309 H       1  UNL1        0.1453
     22 N         138.3746  142.0436  164.2251 N.pl3   1  UNL1       -0.3325
     23 H         137.8760  142.8187  164.5713 H       1  UNL1        0.1468
     24 C         137.7092  140.7021  164.1372 C.3     1  UNL1        0.0870
     25 C         138.5228  139.4504  164.2828 C.3     1  UNL1        0.0195
     26 C         137.8816  138.7555  166.7027 C.3     1  UNL1        0.0001
     27 C         138.9244  138.9711  165.6462 C.3     1  UNL1        0.0017
     28 C         138.9349  138.6778  163.0647 C.3     1  UNL1        0.0017
     29 C         137.9508  138.4426  161.9574 C.3     1  UNL1        0.0001
@<TRIPOS>BOND
     1    26    27    1
     2    27    25    1
     3    25    28    1
     4    28    29    1
     5    25    24    1
     6    24    22    1
     7    22     1    1
     8     1     2   ar
     9     2    17    1
    10    17    18   am
    11    17    19    2
    12     2     3   ar
    13     3     4   ar
    14     4     5   ar
    15     5     6   ar
    16     6     7   ar
    17     7     8   ar
    18     8    11    1
    19    11    12   ar
    20    12    13   ar
    21    13    14   ar
    22    14    15   ar
    23    15    16   ar
    24     8     9   ar
    25     9    10   ar
    26    10     1   ar
    27    10     5   ar
    28    16    11   ar
    29    22    23    1
    30    18    20    1
    31    18    21    1
@<TRIPOS>MOLECULE
*****
 29 31 0 0 0
SMALL
GASTEIGER

@<TRIPOS>ATOM
      1 C         140.3194  144.2014  163.6130 C.ar    1  UNL1        0.0519
      2 C         139.7291  144.1993  162.2340 C.ar    1  UNL1        0.0853
      3 C         138.8461  143.0679  161.7979 C.ar    1  UNL1        0.1045
      4 N         138.5533  141.9386  162.7408 N.ar    1  UNL1       -0.2436
      5 C         139.1436  141.9407  164.1198 C.ar    1  UNL1        0.0825
      6 C         138.8508  140.8115  165.0627 C.ar    1  UNL1        0.0191
      7 C         139.4411  140.8137  166.4416 C.ar    1  UNL1        0.0015
      8 C         140.3241  141.9451  166.8777 C.ar    1  UNL1        0.0002
      9 C         140.6169  143.0743  165.9349 C.ar    1  UNL1        0.0027
     10 C         140.0266  143.0722  164.5559 C.ar    1  UNL1        0.0309
     11 C         140.9144  141.9472  168.2567 C.ar    1  UNL1        0.0031
     12 C         142.3568  142.3082  168.4546 C.ar    1  UNL1        0.0207
     13 C         142.9470  142.3103  169.8337 C.ar    1  UNL1        0.0989
     14 N         142.0949  141.9514  171.0148 N.ar    1  UNL1       -0.2423
     15 C         140.6524  141.5903  170.8168 C.ar    1  UNL1        0.0989
     16 C         140.0623  141.5882  169.4378 C.ar    1  UNL1        0.0207
     17 C         140.0219  145.3286  161.2911 C.2     1  UNL1        0.2455
     18 N         139.1587  146.5553  161.2991 N.am    1  UNL1       -0.3252
     19 O         141.1778  145.2311  160.3401 O.2     1  UNL1       -0.2703
     20 H         138.4000  146.6192  161.9233 H       1  UNL1        0.1453
     21 H         139.3508  147.2965  160.6803 H       1  UNL1        0.1453
     22 N         141.2024  145.3328  164.0490 N.pl3   1  UNL1       -0.3325
     23 H         140.8487  146.0316  164.6456 H       1  UNL1        0.1468
     24 C         142.6245  145.3996  163.5762 C.3     1  UNL1        0.0870
     25 C         143.4809  144.1683  163.5989 C.3     1  UNL1        0.0195
     26 C         142.9080  142.4613  161.7260 C.3     1  UNL1        0.0001
     27 C         143.8385  143.4796  162.3153 C.3     1  UNL1        0.0017
     28 C         143.9798  143.6257  164.9054 C.3     1  UNL1        0.0017
     29 C         144.0601  142.1433  165.1202 C.3     1  UNL1        0.0001
@<TRIPOS>BOND
     1    26    27    1
     2    27    25    1
     3    25    28    1
     4    28    29    1
     5    25    24    1
     6    24    22    1
     7    22     1    1
     8     1     2   ar
     9     2    17    1
    10    17    18   am
    11    17    19    2
    12     2     3   ar
    13     3     4   ar
    14     4     5   ar
    15     5     6   ar
    16     6     7   ar
    17     7     8   ar
    18     8    11    1
    19    11    12   ar
    20    12    13   ar
    21    13    14   ar
    22    14    15   ar
    23    15    16   ar
    24     8     9   ar
    25     9    10   ar
    26    10     1   ar
    27    10     5   ar
    28    16    11   ar
    29    22    23    1
    30    18    20    1
    31    18    21    1
@<TRIPOS>MOLECULE
*****
 29 31 0 0 0
SMALL
GASTEIGER

@<TRIPOS>ATOM
      1 C         140.4427  141.6095  163.7370 C.ar    1  UNL1        0.0519
      2 C         139.8267  141.3826  162.3883 C.ar    1  UNL1        0.0853
      3 C         138.6609  140.4499  162.2435 C.ar    1  UNL1        0.1045
      4 N         138.1112  139.7439  163.4474 N.ar    1  UNL1       -0.2436
      5 C         138.7272  139.9707  164.7962 C.ar    1  UNL1        0.0825
      6 C         138.1775  139.2648  166.0000 C.ar    1  UNL1        0.0191
      7 C         138.7935  139.4917  167.3487 C.ar    1  UNL1        0.0015
      8 C         139.9593  140.4244  167.4935 C.ar    1  UNL1        0.0002
      9 C         140.5090  141.1304  166.2896 C.ar    1  UNL1        0.0027
     10 C         139.8930  140.9035  164.9410 C.ar    1  UNL1        0.0309
     11 C         140.5753  140.6512  168.8423 C.ar    1  UNL1        0.0031
     12 C         141.8042  139.8903  169.2431 C.ar    1  UNL1        0.0207
     13 C         142.4202  140.1171  170.5919 C.ar    1  UNL1        0.0989
     14 N         141.8072  141.1049  171.5398 N.ar    1  UNL1       -0.2423
     15 C         140.5783  141.8659  171.1390 C.ar    1  UNL1        0.0989
     16 C         139.9623  141.6391  169.7902 C.ar    1  UNL1        0.0207
     17 C         140.3764  142.0886  161.1843 C.2     1  UNL1        0.2455
     18 N         139.4483  142.7897  160.2372 N.am    1  UNL1       -0.3252
     19 O         141.8542  142.0934  160.9274 O.2     1  UNL1       -0.2703
     20 H         138.4783  142.7866  160.4058 H       1  UNL1        0.1453
     21 H         139.8090  143.2530  159.4470 H       1  UNL1        0.1453
     22 N         141.6084  142.5422  163.8818 N.pl3   1  UNL1       -0.3325
     23 H         142.5190  142.2273  163.6792 H       1  UNL1        0.1468
     24 C         141.3869  143.9549  164.3352 C.3     1  UNL1        0.0870
     25 C         140.3592  144.8088  163.6535 C.3     1  UNL1        0.0195
     26 C         139.6647  146.3248  161.6612 C.3     1  UNL1        0.0001
     27 C         140.7222  145.5757  162.4165 C.3     1  UNL1        0.0017
     28 C         138.9685  144.8959  164.2089 C.3     1  UNL1        0.0017
     29 C         138.7350  144.7099  165.6789 C.3     1  UNL1        0.0001
@<TRIPOS>BOND
     1    26    27    1
     2    27    25    1
     3    25    28    1
     4    28    29    1
     5    25    24    1
     6    24    22    1
     7    22     1    1
     8     1     2   ar
     9     2    17    1
    10    17    18   am
    11    17    19    2
    12     2     3   ar
    13     3     4   ar
    14     4     5   ar
    15     5     6   ar
    16     6     7   ar
    17     7     8   ar
    18     8    11    1
    19    11    12   ar
    20    12    13   ar
    21    13    14   ar
    22    14    15   ar
    23    15    16   ar
    24     8     9   ar
    25     9    10   ar
    26    10     1   ar
    27    10     5   ar
    28    16    11   ar
    29    22    23    1
    30    18    20    1
    31    18    21    1
