@<TRIPOS>MOLECULE
*****
 27 30 0 0 0
SMALL
GASTEIGER

@<TRIPOS>ATOM
      1 C         139.8796  138.1842  162.8446 C.ar    1  UNL1        0.1384
      2 C         138.8646  137.6441  163.8080 C.ar    1  UNL1        0.0381
      3 C         138.8436  138.1310  165.2266 C.ar    1  UNL1        0.0172
      4 C         139.8376  139.1581  165.6818 C.ar    1  UNL1        0.0430
      5 C         140.8525  139.6982  164.7184 C.ar    1  UNL1        0.0207
      6 C         140.8735  139.2112  163.2998 C.ar    1  UNL1        0.0362
      7 C         141.8465  140.7253  165.1735 C.3     1  UNL1        0.1402
      8 O         142.8614  141.2654  164.2101 O.3     1  UNL1       -0.3518
      9 C         143.8554  142.2924  164.6653 C.3     1  UNL1        0.1425
     10 C         143.8344  142.7794  166.0839 C.3     1  UNL1        0.0322
     11 C         142.8195  142.2393  167.0473 C.3     1  UNL1        0.0070
     12 C         141.8255  141.2123  166.5921 C.3     1  UNL1        0.0494
     13 C         140.8105  140.6722  167.5556 C.3     1  UNL1        0.0717
     14 N         139.8166  139.6451  167.1004 N.pl3   1  UNL1       -0.3341
     15 H         139.1505  139.2906  167.7327 H       1  UNL1        0.1468
     16 C         140.7895  141.1592  168.9741 C.3     1  UNL1        0.0230
     17 C         139.9961  142.3795  169.3365 C.3     1  UNL1        0.0338
     18 C         139.9752  142.8665  170.7551 C.3     1  UNL1        0.1422
     19 O         140.7476  142.1331  171.8113 O.3     1  UNL1       -0.3538
     20 C         141.5409  140.9128  171.4489 C.3     1  UNL1        0.1422
     21 C         141.5619  140.4258  170.0304 C.3     1  UNL1        0.0338
     22 O         139.9006  137.6972  161.4260 O.3     1  UNL1       -0.4755
     23 C         139.2257  138.4943  160.3493 C.3     1  UNL1        0.2054
     24 C         137.9669  139.2511  160.6538 C.3     1  UNL1        0.0473
     25 C         138.5695  141.7347  160.1861 C.3     1  UNL1        0.0001
     26 C         138.0414  140.6779  161.1105 C.3     1  UNL1        0.0037
     27 C         137.5878  141.0480  162.4915 C.3     1  UNL1        0.0001
@<TRIPOS>BOND
     1    25    26    1
     2    26    27    1
     3    26    24    1
     4    24    23    1
     5    23    22    1
     6    22     1    1
     7     1     2   ar
     8     2     3   ar
     9     3     4   ar
    10     4     5   ar
    11     5     6   ar
    12     5     7    1
    13     7     8    1
    14     8     9    1
    15     9    10    1
    16    10    11    1
    17    12    11    1
    18    12    13    1
    19    13    16    1
    20    16    17    1
    21    17    18    1
    22    18    19    1
    23    19    20    1
    24    20    21    1
    25    13    14    1
    26     6     1   ar
    27    12     7    1
    28    21    16    1
    29    14     4    1
    30    14    15    1
@<TRIPOS>MOLECULE
*****
 27 30 0 0 0
SMALL
GASTEIGER

@<TRIPOS>ATOM
      1 C         143.6942  138.7418  162.8137 C.ar    1  UNL1        0.1384
      2 C         144.7133  139.6801  163.3892 C.ar    1  UNL1        0.0381
      3 C         144.4154  140.4252  164.6565 C.ar    1  UNL1        0.0172
      4 C         143.0985  140.2321  165.3482 C.ar    1  UNL1        0.0430
      5 C         142.0795  139.2938  164.7727 C.ar    1  UNL1        0.0207
      6 C         142.3774  138.5486  163.5054 C.ar    1  UNL1        0.0362
      7 C         140.7626  139.1006  165.4645 C.3     1  UNL1        0.1402
      8 O         139.7436  138.1623  164.8890 O.3     1  UNL1       -0.3518
      9 C         138.4268  137.9692  165.5807 C.3     1  UNL1        0.1425
     10 C         138.1289  138.7144  166.8480 C.3     1  UNL1        0.0322
     11 C         139.1479  139.6526  167.4235 C.3     1  UNL1        0.0070
     12 C         140.4647  139.8458  166.7318 C.3     1  UNL1        0.0494
     13 C         141.4838  140.7841  167.3073 C.3     1  UNL1        0.0717
     14 N         142.8006  140.9772  166.6155 N.pl3   1  UNL1       -0.3341
     15 H         143.4695  141.5930  166.9933 H       1  UNL1        0.1468
     16 C         141.1859  141.5292  168.5746 C.3     1  UNL1        0.0230
     17 C         141.4404  140.8810  169.9032 C.3     1  UNL1        0.0338
     18 C         141.1425  141.6262  171.1705 C.3     1  UNL1        0.1422
     19 O         140.5902  143.0195  171.1092 O.3     1  UNL1       -0.3538
     20 C         140.3358  143.6676  169.7806 C.3     1  UNL1        0.1422
     21 C         140.6337  142.9225  168.5133 C.3     1  UNL1        0.0338
     22 O         143.9921  137.9966  161.5464 O.3     1  UNL1       -0.4755
     23 C         142.8734  137.5986  160.6297 C.3     1  UNL1        0.2054
     24 C         142.2488  138.6169  159.7226 C.3     1  UNL1        0.0473
     25 C         141.2422  140.8132  160.6782 C.3     1  UNL1        0.0001
     26 C         141.0617  139.4074  160.1871 C.3     1  UNL1        0.0037
     27 C         139.6940  138.7920  160.1607 C.3     1  UNL1        0.0001
@<TRIPOS>BOND
     1    25    26    1
     2    26    27    1
     3    26    24    1
     4    24    23    1
     5    23    22    1
     6    22     1    1
     7     1     2   ar
     8     2     3   ar
     9     3     4   ar
    10     4     5   ar
    11     5     6   ar
    12     5     7    1
    13     7     8    1
    14     8     9    1
    15     9    10    1
    16    10    11    1
    17    12    11    1
    18    12    13    1
    19    13    16    1
    20    16    17    1
    21    17    18    1
    22    18    19    1
    23    19    20    1
    24    20    21    1
    25    13    14    1
    26     6     1   ar
    27    12     7    1
    28    21    16    1
    29    14     4    1
    30    14    15    1
@<TRIPOS>MOLECULE
*****
 27 30 0 0 0
SMALL
GASTEIGER

@<TRIPOS>ATOM
      1 C         138.2173  143.0587  162.3280 C.ar    1  UNL1        0.1384
      2 C         137.8548  144.2312  163.1906 C.ar    1  UNL1        0.0381
      3 C         138.3587  144.3086  164.6013 C.ar    1  UNL1        0.0172
      4 C         139.2251  143.2136  165.1494 C.ar    1  UNL1        0.0430
      5 C         139.5875  142.0412  164.2868 C.ar    1  UNL1        0.0207
      6 C         139.0836  141.9638  162.8761 C.ar    1  UNL1        0.0362
      7 C         140.4539  140.9462  164.8349 C.3     1  UNL1        0.1402
      8 O         140.8164  139.7738  163.9723 O.3     1  UNL1       -0.3518
      9 C         141.6827  138.6788  164.5204 C.3     1  UNL1        0.1425
     10 C         142.1866  138.7563  165.9311 C.3     1  UNL1        0.0322
     11 C         141.8242  139.9286  166.7937 C.3     1  UNL1        0.0070
     12 C         140.9578  141.0236  166.2456 C.3     1  UNL1        0.0494
     13 C         140.5953  142.1960  167.1082 C.3     1  UNL1        0.0717
     14 N         139.7290  143.2910  166.5601 N.pl3   1  UNL1       -0.3341
     15 H         139.4911  144.0605  167.1263 H       1  UNL1        0.1468
     16 C         141.0992  142.2734  168.5189 C.3     1  UNL1        0.0230
     17 C         142.5362  142.6123  168.7845 C.3     1  UNL1        0.0338
     18 C         143.0401  142.6897  170.1952 C.3     1  UNL1        0.1422
     19 O         142.1070  142.4282  171.3403 O.3     1  UNL1       -0.3538
     20 C         140.6702  142.0894  171.0747 C.3     1  UNL1        0.1422
     21 C         140.1663  142.0120  169.6640 C.3     1  UNL1        0.0338
     22 O         137.7134  142.9813  160.9173 O.3     1  UNL1       -0.4755
     23 C         138.6257  142.5208  159.8192 C.3     1  UNL1        0.2054
     24 C         139.5812  143.4866  159.1835 C.3     1  UNL1        0.0473
     25 C         140.3201  145.5393  160.5944 C.3     1  UNL1        0.0001
     26 C         140.6114  144.1839  160.0217 C.3     1  UNL1        0.0037
     27 C         141.9329  143.5257  160.2871 C.3     1  UNL1        0.0001
@<TRIPOS>BOND
     1    25    26    1
     2    26    27    1
     3    26    24    1
     4    24    23    1
     5    23    22    1
     6    22     1    1
     7     1     2   ar
     8     2     3   ar
     9     3     4   ar
    10     4     5   ar
    11     5     6   ar
    12     5     7    1
    13     7     8    1
    14     8     9    1
    15     9    10    1
    16    10    11    1
    17    12    11    1
    18    12    13    1
    19    13    16    1
    20    16    17    1
    21    17    18    1
    22    18    19    1
    23    19    20    1
    24    20    21    1
    25    13    14    1
    26     6     1   ar
    27    12     7    1
    28    21    16    1
    29    14     4    1
    30    14    15    1
@<TRIPOS>MOLECULE
*****
 27 30 0 0 0
SMALL
GASTEIGER

@<TRIPOS>ATOM
      1 C         143.9789  141.1104  162.6440 C.ar    1  UNL1        0.1384
      2 C         144.8496  141.9829  163.4989 C.ar    1  UNL1        0.0381
      3 C         144.4613  142.2678  164.9195 C.ar    1  UNL1        0.0172
      4 C         143.2024  141.6802  165.4852 C.ar    1  UNL1        0.0430
      5 C         142.3318  140.8078  164.6303 C.ar    1  UNL1        0.0207
      6 C         142.7200  140.5229  163.2097 C.ar    1  UNL1        0.0362
      7 C         141.0729  140.2202  165.1961 C.3     1  UNL1        0.1402
      8 O         140.2023  139.3478  164.3412 O.3     1  UNL1       -0.3518
      9 C         138.9435  138.7602  164.9069 C.3     1  UNL1        0.1425
     10 C         138.5553  139.0451  166.3275 C.3     1  UNL1        0.0322
     11 C         139.4259  139.9175  167.1824 C.3     1  UNL1        0.0070
     12 C         140.6847  140.5051  166.6167 C.3     1  UNL1        0.0494
     13 C         141.5554  141.3776  167.4716 C.3     1  UNL1        0.0717
     14 N         142.8142  141.9651  166.9058 N.pl3   1  UNL1       -0.3341
     15 H         143.3857  142.5377  167.4669 H       1  UNL1        0.1468
     16 C         141.1672  141.6625  168.8922 C.3     1  UNL1        0.0230
     17 C         141.6258  140.7514  169.9921 C.3     1  UNL1        0.0338
     18 C         141.2376  141.0363  171.4127 C.3     1  UNL1        0.1422
     19 O         140.3907  142.2322  171.7334 O.3     1  UNL1       -0.3538
     20 C         139.9322  143.1432  170.6335 C.3     1  UNL1        0.1422
     21 C         140.3204  142.8583  169.2129 C.3     1  UNL1        0.0338
     22 O         144.3671  140.8256  161.2234 O.3     1  UNL1       -0.4755
     23 C         143.6766  141.5399  160.0995 C.3     1  UNL1        0.2054
     24 C         143.4096  143.0126  160.1986 C.3     1  UNL1        0.0473
     25 C         140.8281  143.0626  160.4865 C.3     1  UNL1        0.0001
     26 C         142.1927  143.5072  160.9226 C.3     1  UNL1        0.0037
     27 C         142.3403  144.4465  162.0827 C.3     1  UNL1        0.0001
@<TRIPOS>BOND
     1    25    26    1
     2    26    27    1
     3    26    24    1
     4    24    23    1
     5    23    22    1
     6    22     1    1
     7     1     2   ar
     8     2     3   ar
     9     3     4   ar
    10     4     5   ar
    11     5     6   ar
    12     5     7    1
    13     7     8    1
    14     8     9    1
    15     9    10    1
    16    10    11    1
    17    12    11    1
    18    12    13    1
    19    13    16    1
    20    16    17    1
    21    17    18    1
    22    18    19    1
    23    19    20    1
    24    20    21    1
    25    13    14    1
    26     6     1   ar
    27    12     7    1
    28    21    16    1
    29    14     4    1
    30    14    15    1
@<TRIPOS>MOLECULE
*****
 27 30 0 0 0
SMALL
GASTEIGER

@<TRIPOS>ATOM
      1 C         144.5398  142.3763  162.3474 C.ar    1  UNL1        0.1384
      2 C         145.2070  141.5119  163.3760 C.ar    1  UNL1        0.0381
      3 C         144.5565  141.2959  164.7102 C.ar    1  UNL1        0.0172
      4 C         143.2389  141.9442  165.0159 C.ar    1  UNL1        0.0430
      5 C         142.5717  142.8086  163.9874 C.ar    1  UNL1        0.0207
      6 C         143.2222  143.0246  162.6532 C.ar    1  UNL1        0.0362
      7 C         141.2540  143.4569  164.2932 C.3     1  UNL1        0.1402
      8 O         140.5869  144.3213  163.2647 O.3     1  UNL1       -0.3518
      9 C         139.2693  144.9696  163.5704 C.3     1  UNL1        0.1425
     10 C         138.6188  144.7535  164.9047 C.3     1  UNL1        0.0322
     11 C         139.2859  143.8892  165.9332 C.3     1  UNL1        0.0070
     12 C         140.6035  143.2409  165.6274 C.3     1  UNL1        0.0494
     13 C         141.2707  142.3765  166.6559 C.3     1  UNL1        0.0717
     14 N         142.5884  141.7282  166.3502 N.pl3   1  UNL1       -0.3341
     15 H         143.0262  141.1609  167.0252 H       1  UNL1        0.1468
     16 C         140.6202  142.1605  167.9901 C.3     1  UNL1        0.0230
     17 C         139.9581  140.8502  168.2984 C.3     1  UNL1        0.0338
     18 C         139.3077  140.6342  169.6326 C.3     1  UNL1        0.1422
     19 O         139.3193  141.7284  170.6586 O.3     1  UNL1       -0.3538
     20 C         139.9813  143.0386  170.3504 C.3     1  UNL1        0.1422
     21 C         140.6318  143.2546  169.0161 C.3     1  UNL1        0.0338
     22 O         145.1903  142.5923  161.0132 O.3     1  UNL1       -0.4755
     23 C         144.4032  142.3867  159.7530 C.3     1  UNL1        0.2054
     24 C         143.8849  141.0223  159.4066 C.3     1  UNL1        0.0473
     25 C         141.3116  141.1483  159.7416 C.3     1  UNL1        0.0001
     26 C         142.6325  140.5093  160.0533 C.3     1  UNL1        0.0037
     27 C         142.7008  139.3574  161.0115 C.3     1  UNL1        0.0001
@<TRIPOS>BOND
     1    25    26    1
     2    26    27    1
     3    26    24    1
     4    24    23    1
     5    23    22    1
     6    22     1    1
     7     1     2   ar
     8     2     3   ar
     9     3     4   ar
    10     4     5   ar
    11     5     6   ar
    12     5     7    1
    13     7     8    1
    14     8     9    1
    15     9    10    1
    16    10    11    1
    17    12    11    1
    18    12    13    1
    19    13    16    1
    20    16    17    1
    21    17    18    1
    22    18    19    1
    23    19    20    1
    24    20    21    1
    25    13    14    1
    26     6     1   ar
    27    12     7    1
    28    21    16    1
    29    14     4    1
    30    14    15    1
@<TRIPOS>MOLECULE
*****
 27 30 0 0 0
SMALL
GASTEIGER

@<TRIPOS>ATOM
      1 C         138.5136  143.2300  162.3554 C.ar    1  UNL1        0.1384
      2 C         138.1196  144.3835  163.2297 C.ar    1  UNL1        0.0381
      3 C         138.5493  144.4166  164.6664 C.ar    1  UNL1        0.0172
      4 C         139.3731  143.2962  165.2289 C.ar    1  UNL1        0.0430
      5 C         139.7671  142.1428  164.3546 C.ar    1  UNL1        0.0207
      6 C         139.3373  142.1097  162.9179 C.ar    1  UNL1        0.0362
      7 C         140.5908  141.0225  164.9171 C.3     1  UNL1        0.1402
      8 O         140.9848  139.8691  164.0428 O.3     1  UNL1       -0.3518
      9 C         141.8085  138.7488  164.6053 C.3     1  UNL1        0.1425
     10 C         142.2382  138.7819  166.0421 C.3     1  UNL1        0.0322
     11 C         141.8442  139.9353  166.9163 C.3     1  UNL1        0.0070
     12 C         141.0205  141.0556  166.3538 C.3     1  UNL1        0.0494
     13 C         140.6265  142.2091  167.2281 C.3     1  UNL1        0.0717
     14 N         139.8028  143.3294  166.6656 N.pl3   1  UNL1       -0.3341
     15 H         139.5442  144.0864  167.2394 H       1  UNL1        0.1468
     16 C         141.0562  142.2422  168.6649 C.3     1  UNL1        0.0230
     17 C         140.1091  141.8014  169.7413 C.3     1  UNL1        0.0338
     18 C         140.5388  141.8345  171.1781 C.3     1  UNL1        0.1422
     19 O         141.9157  142.3085  171.5384 O.3     1  UNL1       -0.3538
     20 C         142.8627  142.7493  170.4619 C.3     1  UNL1        0.1422
     21 C         142.4330  142.7162  169.0252 C.3     1  UNL1        0.0338
     22 O         138.0839  143.1968  160.9186 O.3     1  UNL1       -0.4755
     23 C         138.9146  142.4685  159.9039 C.3     1  UNL1        0.2054
     24 C         138.3740  141.2399  159.2345 C.3     1  UNL1        0.0473
     25 C         139.5852  138.9651  159.5634 C.3     1  UNL1        0.0001
     26 C         138.4738  139.9082  159.9175 C.3     1  UNL1        0.0037
     27 C         137.4622  139.5196  160.9546 C.3     1  UNL1        0.0001
@<TRIPOS>BOND
     1    25    26    1
     2    26    27    1
     3    26    24    1
     4    24    23    1
     5    23    22    1
     6    22     1    1
     7     1     2   ar
     8     2     3   ar
     9     3     4   ar
    10     4     5   ar
    11     5     6   ar
    12     5     7    1
    13     7     8    1
    14     8     9    1
    15     9    10    1
    16    10    11    1
    17    12    11    1
    18    12    13    1
    19    13    16    1
    20    16    17    1
    21    17    18    1
    22    18    19    1
    23    19    20    1
    24    20    21    1
    25    13    14    1
    26     6     1   ar
    27    12     7    1
    28    21    16    1
    29    14     4    1
    30    14    15    1
@<TRIPOS>MOLECULE
*****
 27 30 0 0 0
SMALL
GASTEIGER

@<TRIPOS>ATOM
      1 C         139.9896  138.1406  162.7772 C.ar    1  UNL1        0.1384
      2 C         138.9590  137.6003  163.7238 C.ar    1  UNL1        0.0381
      3 C         138.9084  138.0945  165.1392 C.ar    1  UNL1        0.0172
      4 C         139.8885  139.1289  165.6079 C.ar    1  UNL1        0.0430
      5 C         140.9190  139.6691  164.6613 C.ar    1  UNL1        0.0207
      6 C         140.9695  139.1750  163.2459 C.ar    1  UNL1        0.0362
      7 C         141.8990  140.7035  165.1300 C.3     1  UNL1        0.1402
      8 O         142.9295  141.2438  164.1833 O.3     1  UNL1       -0.3518
      9 C         143.9094  142.2781  164.6520 C.3     1  UNL1        0.1425
     10 C         143.8589  142.7723  166.0674 C.3     1  UNL1        0.0322
     11 C         142.8284  142.2321  167.0140 C.3     1  UNL1        0.0070
     12 C         141.8484  141.1977  166.5453 C.3     1  UNL1        0.0494
     13 C         140.8178  140.6574  167.4920 C.3     1  UNL1        0.0717
     14 N         139.8379  139.6231  167.0233 N.pl3   1  UNL1       -0.3341
     15 H         139.1615  139.2685  167.6446 H       1  UNL1        0.1468
     16 C         140.7673  141.1516  168.9073 C.3     1  UNL1        0.0230
     17 C         141.5041  140.4142  169.9860 C.3     1  UNL1        0.0338
     18 C         141.4535  140.9084  171.4013 C.3     1  UNL1        0.1422
     19 O         140.6661  142.1399  171.7381 O.3     1  UNL1       -0.3538
     20 C         139.9293  142.8772  170.6595 C.3     1  UNL1        0.1422
     21 C         139.9799  142.3831  169.2441 C.3     1  UNL1        0.0338
     22 O         140.0402  137.6464  161.3618 O.3     1  UNL1       -0.4755
     23 C         140.0146  138.6243  160.2246 C.3     1  UNL1        0.2054
     24 C         141.2855  139.2779  159.7688 C.3     1  UNL1        0.0473
     25 C         143.6022  138.4041  160.5557 C.3     1  UNL1        0.0001
     26 C         142.5111  138.4475  159.5273 C.3     1  UNL1        0.0037
     27 C         142.6455  137.6606  158.2574 C.3     1  UNL1        0.0001
@<TRIPOS>BOND
     1    25    26    1
     2    26    27    1
     3    26    24    1
     4    24    23    1
     5    23    22    1
     6    22     1    1
     7     1     2   ar
     8     2     3   ar
     9     3     4   ar
    10     4     5   ar
    11     5     6   ar
    12     5     7    1
    13     7     8    1
    14     8     9    1
    15     9    10    1
    16    10    11    1
    17    12    11    1
    18    12    13    1
    19    13    16    1
    20    16    17    1
    21    17    18    1
    22    18    19    1
    23    19    20    1
    24    20    21    1
    25    13    14    1
    26     6     1   ar
    27    12     7    1
    28    21    16    1
    29    14     4    1
    30    14    15    1
@<TRIPOS>MOLECULE
*****
 27 30 0 0 0
SMALL
GASTEIGER

@<TRIPOS>ATOM
      1 C         142.5557  142.2890  162.1376 C.ar    1  UNL1        0.1384
      2 C         143.4296  143.2236  162.9205 C.ar    1  UNL1        0.0381
      3 C         143.2902  143.3088  164.4116 C.ar    1  UNL1        0.0172
      4 C         142.2769  142.4592  165.1198 C.ar    1  UNL1        0.0430
      5 C         141.4030  141.5246  164.3370 C.ar    1  UNL1        0.0207
      6 C         141.5425  141.4395  162.8459 C.ar    1  UNL1        0.0362
      7 C         140.3897  140.6750  165.0452 C.3     1  UNL1        0.1402
      8 O         139.5159  139.7404  164.2623 O.3     1  UNL1       -0.3518
      9 C         138.5027  138.8909  164.9706 C.3     1  UNL1        0.1425
     10 C         138.3632  138.9761  166.4616 C.3     1  UNL1        0.0322
     11 C         139.2370  139.9107  167.2445 C.3     1  UNL1        0.0070
     12 C         140.2503  140.7602  166.5363 C.3     1  UNL1        0.0494
     13 C         141.1242  141.6949  167.3191 C.3     1  UNL1        0.0717
     14 N         142.1374  142.5444  166.6109 N.pl3   1  UNL1       -0.3341
     15 H         142.7109  143.1578  167.1247 H       1  UNL1        0.1468
     16 C         140.9847  141.7800  168.8102 C.3     1  UNL1        0.0230
     17 C         140.0830  142.8112  169.4215 C.3     1  UNL1        0.0338
     18 C         139.9435  142.8963  170.9125 C.3     1  UNL1        0.1422
     19 O         140.7058  141.9503  171.7923 O.3     1  UNL1       -0.3538
     20 C         141.6075  140.9191  171.1810 C.3     1  UNL1        0.1422
     21 C         141.7469  140.8340  169.6900 C.3     1  UNL1        0.0338
     22 O         142.6952  142.2038  160.6466 O.3     1  UNL1       -0.4755
     23 C         143.0280  140.8928  159.9981 C.3     1  UNL1        0.2054
     24 C         144.1446  140.0502  160.5397 C.3     1  UNL1        0.0473
     25 C         143.2749  137.6071  160.6963 C.3     1  UNL1        0.0001
     26 C         143.8356  138.8312  161.3573 C.3     1  UNL1        0.0037
     27 C         144.0874  138.8364  162.8360 C.3     1  UNL1        0.0001
@<TRIPOS>BOND
     1    25    26    1
     2    26    27    1
     3    26    24    1
     4    24    23    1
     5    23    22    1
     6    22     1    1
     7     1     2   ar
     8     2     3   ar
     9     3     4   ar
    10     4     5   ar
    11     5     6   ar
    12     5     7    1
    13     7     8    1
    14     8     9    1
    15     9    10    1
    16    10    11    1
    17    12    11    1
    18    12    13    1
    19    13    16    1
    20    16    17    1
    21    17    18    1
    22    18    19    1
    23    19    20    1
    24    20    21    1
    25    13    14    1
    26     6     1   ar
    27    12     7    1
    28    21    16    1
    29    14     4    1
    30    14    15    1
@<TRIPOS>MOLECULE
*****
 27 30 0 0 0
SMALL
GASTEIGER

@<TRIPOS>ATOM
      1 C         142.4732  140.2945  167.8752 C.ar    1  UNL1        0.1384
      2 C         143.2367  141.5848  167.8266 C.ar    1  UNL1        0.0381
      3 C         142.9723  142.5717  166.7284 C.ar    1  UNL1        0.0172
      4 C         141.9444  142.2684  165.6788 C.ar    1  UNL1        0.0430
      5 C         141.1810  140.9781  165.7274 C.ar    1  UNL1        0.0207
      6 C         141.4454  139.9912  166.8257 C.ar    1  UNL1        0.0362
      7 C         140.1532  140.6747  164.6779 C.3     1  UNL1        0.1402
      8 O         139.3897  139.3845  164.7265 O.3     1  UNL1       -0.3518
      9 C         138.3620  139.0812  163.6770 C.3     1  UNL1        0.1425
     10 C         138.0976  140.0681  162.5788 C.3     1  UNL1        0.0322
     11 C         138.8610  141.3583  162.5301 C.3     1  UNL1        0.0070
     12 C         139.8888  141.6616  163.5796 C.3     1  UNL1        0.0494
     13 C         140.6523  142.9519  163.5310 C.3     1  UNL1        0.0717
     14 N         141.6801  143.2553  164.5805 N.pl3   1  UNL1       -0.3341
     15 H         142.1812  144.1021  164.5486 H       1  UNL1        0.1468
     16 C         140.3879  143.9389  162.4328 C.3     1  UNL1        0.0230
     17 C         139.7539  145.2610  162.7491 C.3     1  UNL1        0.0338
     18 C         139.4896  146.2479  161.6509 C.3     1  UNL1        0.1422
     19 O         139.8592  145.9127  160.2363 O.3     1  UNL1       -0.3538
     20 C         140.4932  144.5906  159.9200 C.3     1  UNL1        0.1422
     21 C         140.7576  143.6037  161.0182 C.3     1  UNL1        0.0338
     22 O         142.7375  139.3076  168.9735 O.3     1  UNL1       -0.4755
     23 C         141.8897  139.3175  170.2109 C.3     1  UNL1        0.2054
     24 C         141.3796  140.6169  170.7601 C.3     1  UNL1        0.0473
     25 C         140.0890  142.7250  169.9602 C.3     1  UNL1        0.0001
     26 C         140.1451  141.2425  170.1819 C.3     1  UNL1        0.0037
     27 C         138.9667  140.3857  169.8253 C.3     1  UNL1        0.0001
@<TRIPOS>BOND
     1    25    26    1
     2    26    27    1
     3    26    24    1
     4    24    23    1
     5    23    22    1
     6    22     1    1
     7     1     2   ar
     8     2     3   ar
     9     3     4   ar
    10     4     5   ar
    11     5     6   ar
    12     5     7    1
    13     7     8    1
    14     8     9    1
    15     9    10    1
    16    10    11    1
    17    12    11    1
    18    12    13    1
    19    13    16    1
    20    16    17    1
    21    17    18    1
    22    18    19    1
    23    19    20    1
    24    20    21    1
    25    13    14    1
    26     6     1   ar
    27    12     7    1
    28    21    16    1
    29    14     4    1
    30    14    15    1
