@<TRIPOS>MOLECULE
*****
 28 31 0 0 0
SMALL
GASTEIGER

@<TRIPOS>ATOM
      1 C         140.8523  139.3869  165.1566 C.ar    1  UNL1        0.0191
      2 C         140.5362  140.2650  163.9822 C.ar    1  UNL1        0.0023
      3 C         140.5493  139.6951  162.5948 C.ar    1  UNL1        0.0367
      4 C         140.8785  138.2473  162.3817 C.ar    1  UNL1        0.1385
      5 C         141.1946  137.3693  163.5560 C.ar    1  UNL1        0.0367
      6 C         141.1815  137.9391  164.9435 C.ar    1  UNL1        0.0023
      7 C         138.4921  138.9184  166.9483 C.3     1  UNL1        0.0300
      8 C         139.6591  139.7225  167.4400 C.3     1  UNL1        0.1779
      9 C         140.8392  139.9568  166.5441 C.3     1  UNL1        0.2102
     10 O         142.0061  140.7608  167.0357 O.3     1  UNL1       -0.4717
     11 C         141.9930  141.3306  168.4233 C.ar    1  UNL1        0.1559
     12 C         143.1600  142.1347  168.9149 C.ar    1  UNL1        0.0382
     13 C         143.1468  142.7044  170.3024 C.ar    1  UNL1        0.0032
     14 C         141.9668  142.4702  171.1983 C.ar    1  UNL1        0.0015
     15 C         140.7998  141.6661  170.7066 C.ar    1  UNL1        0.0214
     16 C         140.8130  141.0963  169.3192 C.ar    1  UNL1        0.1395
     17 S         139.6460  140.2922  168.8275 S.O2    1  UNL1        0.0137
     18 O         139.1702  140.6226  170.2111 O.2     1  UNL1       -0.1685
     19 O         138.3138  139.6029  168.8164 O.2     1  UNL1       -0.1685
     20 O         140.8916  137.6775  160.9941 O.3     1  UNL1       -0.4754
     21 C         141.9730  138.0708  160.0320 C.3     1  UNL1        0.2068
     22 C         143.3911  138.1909  160.5059 C.3     1  UNL1        0.0646
     23 C         143.9807  139.5442  160.7724 C.3     1  UNL1        0.0759
     24 N         144.1085  140.0424  162.1814 N.3     1  UNL1       -0.2726
     25 C         143.9783  141.4686  162.6276 C.3     1  UNL1        0.0721
     26 C         144.1783  141.5096  164.1136 C.3     1  UNL1        0.0188
     27 C         144.4321  140.1086  164.5859 C.3     1  UNL1        0.0188
     28 C         144.3889  139.2019  163.3917 C.3     1  UNL1        0.0721
@<TRIPOS>BOND
     1     8     7    1
     2     8     9    1
     3     9     1    1
     4     1     2   ar
     5     2     3   ar
     6     3     4   ar
     7     4    20    1
     8    20    21    1
     9    21    22    1
    10    22    23    1
    11    23    24    1
    12    24    25    1
    13    25    26    1
    14    26    27    1
    15    27    28    1
    16     4     5   ar
    17     5     6   ar
    18     9    10    1
    19    10    11    1
    20    11    12   ar
    21    12    13   ar
    22    13    14   ar
    23    14    15   ar
    24    15    16   ar
    25    16    17    1
    26    17    18    2
    27    17    19    2
    28    17     8    1
    29     6     1   ar
    30    16    11   ar
    31    28    24    1
@<TRIPOS>MOLECULE
*****
 28 31 0 0 0
SMALL
GASTEIGER

@<TRIPOS>ATOM
      1 C         139.6994  141.8397  164.2628 C.ar    1  UNL1        0.0191
      2 C         138.5813  142.8212  164.0716 C.ar    1  UNL1        0.0023
      3 C         138.1174  143.1694  162.6884 C.ar    1  UNL1        0.0367
      4 C         138.7716  142.5363  161.4963 C.ar    1  UNL1        0.1385
      5 C         139.8897  141.5548  161.6874 C.ar    1  UNL1        0.0367
      6 C         140.3536  141.2066  163.0707 C.ar    1  UNL1        0.0023
      7 C         138.1701  139.8444  165.8998 C.3     1  UNL1        0.0300
      8 C         139.3987  140.4938  166.4646 C.3     1  UNL1        0.1779
      9 C         140.1634  141.4914  165.6461 C.3     1  UNL1        0.2102
     10 O         141.3920  142.1407  166.2108 O.3     1  UNL1       -0.4717
     11 C         141.8559  141.7924  167.5941 C.ar    1  UNL1        0.1559
     12 C         143.0845  142.4417  168.1589 C.ar    1  UNL1        0.0382
     13 C         143.5484  142.0933  169.5421 C.ar    1  UNL1        0.0032
     14 C         142.7837  141.0957  170.3606 C.ar    1  UNL1        0.0015
     15 C         141.5552  140.4464  169.7959 C.ar    1  UNL1        0.0214
     16 C         141.0913  140.7947  168.4127 C.ar    1  UNL1        0.1395
     17 S         139.8626  140.1454  167.8479 S.O2    1  UNL1        0.0137
     18 O         139.9050  139.4929  169.1979 O.2     1  UNL1       -0.1685
     19 O         138.6487  139.2695  167.7520 O.2     1  UNL1       -0.1685
     20 O         138.3077  142.8846  160.1129 O.3     1  UNL1       -0.4754
     21 C         139.3046  143.2850  159.0661 C.3     1  UNL1        0.2068
     22 C         140.0904  144.5527  159.2248 C.3     1  UNL1        0.0646
     23 C         141.4830  144.5073  159.7805 C.3     1  UNL1        0.0759
     24 N         141.7032  144.6055  161.2610 N.3     1  UNL1       -0.2726
     25 C         142.7837  143.9150  162.0394 C.3     1  UNL1        0.0721
     26 C         142.6299  144.2941  163.4825 C.3     1  UNL1        0.0188
     27 C         141.4542  145.2189  163.5960 C.3     1  UNL1        0.0188
     28 C         140.8816  145.4113  162.2231 C.3     1  UNL1        0.0721
@<TRIPOS>BOND
     1     8     7    1
     2     8     9    1
     3     9     1    1
     4     1     2   ar
     5     2     3   ar
     6     3     4   ar
     7     4    20    1
     8    20    21    1
     9    21    22    1
    10    22    23    1
    11    23    24    1
    12    24    25    1
    13    25    26    1
    14    26    27    1
    15    27    28    1
    16     4     5   ar
    17     5     6   ar
    18     9    10    1
    19    10    11    1
    20    11    12   ar
    21    12    13   ar
    22    13    14   ar
    23    14    15   ar
    24    15    16   ar
    25    16    17    1
    26    17    18    2
    27    17    19    2
    28    17     8    1
    29     6     1   ar
    30    16    11   ar
    31    28    24    1
@<TRIPOS>MOLECULE
*****
 28 31 0 0 0
SMALL
GASTEIGER

@<TRIPOS>ATOM
      1 C         141.9794  142.0614  164.6263 C.ar    1  UNL1        0.0191
      2 C         143.0076  143.0695  164.2064 C.ar    1  UNL1        0.0023
      3 C         143.0543  143.5456  162.7847 C.ar    1  UNL1        0.0367
      4 C         142.0727  143.0135  161.7830 C.ar    1  UNL1        0.1385
      5 C         141.0445  142.0054  162.2030 C.ar    1  UNL1        0.0367
      6 C         140.9979  141.5293  163.6246 C.ar    1  UNL1        0.0023
      7 C         143.3773  139.5237  165.4050 C.3     1  UNL1        0.0300
      8 C         142.6317  140.3164  166.4374 C.3     1  UNL1        0.1779
      9 C         141.9327  141.5853  166.0481 C.3     1  UNL1        0.2102
     10 O         141.1872  142.3780  167.0804 O.3     1  UNL1       -0.4717
     11 C         141.1405  141.9018  168.5021 C.ar    1  UNL1        0.1559
     12 C         140.3949  142.6945  169.5344 C.ar    1  UNL1        0.0382
     13 C         140.3482  142.2184  170.9560 C.ar    1  UNL1        0.0032
     14 C         141.0472  140.9496  171.3453 C.ar    1  UNL1        0.0015
     15 C         141.7928  140.1569  170.3130 C.ar    1  UNL1        0.0214
     16 C         141.8394  140.6330  168.8914 C.ar    1  UNL1        0.1395
     17 S         142.5850  139.8403  167.8590 S.O2    1  UNL1        0.0137
     18 O         142.8264  138.9858  169.0680 O.2     1  UNL1       -0.1685
     19 O         143.4145  138.7508  167.2465 O.2     1  UNL1       -0.1685
     20 O         142.1194  143.4896  160.3613 O.3     1  UNL1       -0.4754
     21 C         141.4994  144.8039  159.9898 C.3     1  UNL1        0.2068
     22 C         140.1111  145.1353  160.4510 C.3     1  UNL1        0.0646
     23 C         139.9044  145.8561  161.7502 C.3     1  UNL1        0.0759
     24 N         139.3001  145.1365  162.9193 N.3     1  UNL1       -0.2726
     25 C         139.8702  145.0716  164.3053 C.3     1  UNL1        0.0721
     26 C         138.9420  144.2504  165.1503 C.3     1  UNL1        0.0188
     27 C         137.7982  143.8078  164.2866 C.3     1  UNL1        0.0188
     28 C         138.0196  144.3554  162.9078 C.3     1  UNL1        0.0721
@<TRIPOS>BOND
     1     8     7    1
     2     8     9    1
     3     9     1    1
     4     1     2   ar
     5     2     3   ar
     6     3     4   ar
     7     4    20    1
     8    20    21    1
     9    21    22    1
    10    22    23    1
    11    23    24    1
    12    24    25    1
    13    25    26    1
    14    26    27    1
    15    27    28    1
    16     4     5   ar
    17     5     6   ar
    18     9    10    1
    19    10    11    1
    20    11    12   ar
    21    12    13   ar
    22    13    14   ar
    23    14    15   ar
    24    15    16   ar
    25    16    17    1
    26    17    18    2
    27    17    19    2
    28    17     8    1
    29     6     1   ar
    30    16    11   ar
    31    28    24    1
@<TRIPOS>MOLECULE
*****
 28 31 0 0 0
SMALL
GASTEIGER

@<TRIPOS>ATOM
      1 C         139.7393  139.4687  165.1272 C.ar    1  UNL1        0.0191
      2 C         140.2971  138.1580  164.6574 C.ar    1  UNL1        0.0023
      3 C         139.9831  137.6607  163.2776 C.ar    1  UNL1        0.0367
      4 C         139.1111  138.4741  162.3676 C.ar    1  UNL1        0.1385
      5 C         138.5532  139.7848  162.8374 C.ar    1  UNL1        0.0367
      6 C         138.8673  140.2821  164.2172 C.ar    1  UNL1        0.0023
      7 C         137.8714  138.8725  167.3978 C.3     1  UNL1        0.0300
      8 C         139.1194  139.6680  167.6424 C.3     1  UNL1        0.1779
      9 C         140.0533  139.9661  166.5071 C.3     1  UNL1        0.2102
     10 O         141.3013  140.7616  166.7516 O.3     1  UNL1       -0.4717
     11 C         141.6153  141.2590  168.1315 C.ar    1  UNL1        0.1559
     12 C         142.8633  142.0544  168.3761 C.ar    1  UNL1        0.0382
     13 C         143.1773  142.5518  169.7559 C.ar    1  UNL1        0.0032
     14 C         142.2433  142.2537  170.8912 C.ar    1  UNL1        0.0015
     15 C         140.9954  141.4582  170.6467 C.ar    1  UNL1        0.0214
     16 C         140.6814  140.9609  169.2668 C.ar    1  UNL1        0.1395
     17 S         139.4334  140.1654  169.0222 S.O2    1  UNL1        0.0137
     18 O         139.2976  140.4168  170.4948 O.2     1  UNL1       -0.1685
     19 O         138.1382  139.4572  169.2891 O.2     1  UNL1       -0.1685
     20 O         138.7971  137.9766  160.9877 O.3     1  UNL1       -0.4754
     21 C         139.6614  138.3803  159.8301 C.3     1  UNL1        0.2068
     22 C         140.7139  139.4335  160.0115 C.3     1  UNL1        0.0646
     23 C         142.1230  139.0372  160.3392 C.3     1  UNL1        0.0759
     24 N         142.6934  139.3452  161.6919 N.3     1  UNL1       -0.2726
     25 C         143.6758  138.5004  162.4477 C.3     1  UNL1        0.0721
     26 C         143.9711  139.1851  163.7492 C.3     1  UNL1        0.0188
     27 C         143.1713  140.4532  163.7977 C.3     1  UNL1        0.0188
     28 C         142.3816  140.5521  162.5262 C.3     1  UNL1        0.0721
@<TRIPOS>BOND
     1     8     7    1
     2     8     9    1
     3     9     1    1
     4     1     2   ar
     5     2     3   ar
     6     3     4   ar
     7     4    20    1
     8    20    21    1
     9    21    22    1
    10    22    23    1
    11    23    24    1
    12    24    25    1
    13    25    26    1
    14    26    27    1
    15    27    28    1
    16     4     5   ar
    17     5     6   ar
    18     9    10    1
    19    10    11    1
    20    11    12   ar
    21    12    13   ar
    22    13    14   ar
    23    14    15   ar
    24    15    16   ar
    25    16    17    1
    26    17    18    2
    27    17    19    2
    28    17     8    1
    29     6     1   ar
    30    16    11   ar
    31    28    24    1
@<TRIPOS>MOLECULE
*****
 28 31 0 0 0
SMALL
GASTEIGER

@<TRIPOS>ATOM
      1 C         140.9492  139.7372  164.2244 C.ar    1  UNL1        0.0191
      2 C         139.9259  138.6678  163.9807 C.ar    1  UNL1        0.0023
      3 C         139.6182  138.2296  162.5796 C.ar    1  UNL1        0.0367
      4 C         140.3337  138.8607  161.4221 C.ar    1  UNL1        0.1385
      5 C         141.3570  139.9300  161.6658 C.ar    1  UNL1        0.0367
      6 C         141.6647  140.3683  163.0669 C.ar    1  UNL1        0.0023
      7 C         142.8757  138.1618  165.8997 C.3     1  UNL1        0.0300
      8 C         142.2202  139.3878  166.4633 C.3     1  UNL1        0.1779
      9 C         141.2570  140.1754  165.6256 C.3     1  UNL1        0.2102
     10 O         140.6015  141.4013  166.1890 O.3     1  UNL1       -0.4717
     11 C         140.9093  141.8396  167.5902 C.ar    1  UNL1        0.1559
     12 C         140.2538  143.0655  168.1536 C.ar    1  UNL1        0.0382
     13 C         140.5616  143.5037  169.5548 C.ar    1  UNL1        0.0032
     14 C         141.5248  142.7160  170.3924 C.ar    1  UNL1        0.0015
     15 C         142.1803  141.4902  169.8290 C.ar    1  UNL1        0.0214
     16 C         141.8725  141.0519  168.4279 C.ar    1  UNL1        0.1395
     17 S         142.5280  139.8260  167.8644 S.O2    1  UNL1        0.0137
     18 O         143.1369  139.8402  169.2352 O.2     1  UNL1       -0.1685
     19 O         143.3950  138.6050  167.7770 O.2     1  UNL1       -0.1685
     20 O         140.0260  138.4224  160.0209 O.3     1  UNL1       -0.4754
     21 C         139.2120  139.3042  159.1210 C.3     1  UNL1        0.2068
     22 C         138.0780  140.1082  159.6845 C.3     1  UNL1        0.0646
     23 C         138.3008  141.5334  160.0958 C.3     1  UNL1        0.0759
     24 N         138.3158  141.9008  161.5500 N.3     1  UNL1       -0.2726
     25 C         139.1111  143.0107  162.1709 C.3     1  UNL1        0.0721
     26 C         138.8249  143.0186  163.6433 C.3     1  UNL1        0.0188
     27 C         137.8526  141.9135  163.9324 C.3     1  UNL1        0.0188
     28 C         137.5380  141.2227  162.6387 C.3     1  UNL1        0.0721
@<TRIPOS>BOND
     1     8     7    1
     2     8     9    1
     3     9     1    1
     4     1     2   ar
     5     2     3   ar
     6     3     4   ar
     7     4    20    1
     8    20    21    1
     9    21    22    1
    10    22    23    1
    11    23    24    1
    12    24    25    1
    13    25    26    1
    14    26    27    1
    15    27    28    1
    16     4     5   ar
    17     5     6   ar
    18     9    10    1
    19    10    11    1
    20    11    12   ar
    21    12    13   ar
    22    13    14   ar
    23    14    15   ar
    24    15    16   ar
    25    16    17    1
    26    17    18    2
    27    17    19    2
    28    17     8    1
    29     6     1   ar
    30    16    11   ar
    31    28    24    1
@<TRIPOS>MOLECULE
*****
 28 31 0 0 0
SMALL
GASTEIGER

@<TRIPOS>ATOM
      1 C         142.9042  140.3851  164.8435 C.ar    1  UNL1        0.0191
      2 C         144.3532  140.4147  164.4569 C.ar    1  UNL1        0.0023
      3 C         144.7489  140.2588  163.0185 C.ar    1  UNL1        0.0367
      4 C         143.6956  140.0734  161.9667 C.ar    1  UNL1        0.1385
      5 C         142.2466  140.0439  162.3533 C.ar    1  UNL1        0.0367
      6 C         141.8509  140.1997  163.7917 C.ar    1  UNL1        0.0023
      7 C         143.6376  138.2683  166.8388 C.3     1  UNL1        0.0300
      8 C         142.8751  139.4825  167.2796 C.3     1  UNL1        0.1779
      9 C         142.5084  140.5409  166.2820 C.3     1  UNL1        0.2102
     10 O         141.7459  141.7551  166.7228 O.3     1  UNL1       -0.4717
     11 C         141.3502  141.9110  168.1613 C.ar    1  UNL1        0.1559
     12 C         140.5877  143.1252  168.6020 C.ar    1  UNL1        0.0382
     13 C         140.1920  143.2810  170.0404 C.ar    1  UNL1        0.0032
     14 C         140.5587  142.2225  171.0381 C.ar    1  UNL1        0.0015
     15 C         141.3211  141.0083  170.5973 C.ar    1  UNL1        0.0214
     16 C         141.7169  140.8526  169.1589 C.ar    1  UNL1        0.1395
     17 S         142.4794  139.6383  168.7180 S.O2    1  UNL1        0.0137
     18 O         142.3305  139.3359  170.1797 O.2     1  UNL1       -0.1685
     19 O         143.1902  138.3190  168.7849 O.2     1  UNL1       -0.1685
     20 O         144.0914  139.9176  160.5282 O.3     1  UNL1       -0.4754
     21 C         143.4005  140.7238  159.4687 C.3     1  UNL1        0.2068
     22 C         143.9042  142.0931  159.1205 C.3     1  UNL1        0.0646
     23 C         143.2058  143.3078  159.6561 C.3     1  UNL1        0.0759
     24 N         143.1822  143.5692  161.1330 N.3     1  UNL1       -0.2726
     25 C         144.3810  143.6835  162.0274 C.3     1  UNL1        0.0721
     26 C         143.8954  143.9471  163.4219 C.3     1  UNL1        0.0188
     27 C         142.3965  143.9959  163.3893 C.3     1  UNL1        0.0188
     28 C         141.9558  143.7623  161.9747 C.3     1  UNL1        0.0721
@<TRIPOS>BOND
     1     8     7    1
     2     8     9    1
     3     9     1    1
     4     1     2   ar
     5     2     3   ar
     6     3     4   ar
     7     4    20    1
     8    20    21    1
     9    21    22    1
    10    22    23    1
    11    23    24    1
    12    24    25    1
    13    25    26    1
    14    26    27    1
    15    27    28    1
    16     4     5   ar
    17     5     6   ar
    18     9    10    1
    19    10    11    1
    20    11    12   ar
    21    12    13   ar
    22    13    14   ar
    23    14    15   ar
    24    15    16   ar
    25    16    17    1
    26    17    18    2
    27    17    19    2
    28    17     8    1
    29     6     1   ar
    30    16    11   ar
    31    28    24    1
@<TRIPOS>MOLECULE
*****
 28 31 0 0 0
SMALL
GASTEIGER

@<TRIPOS>ATOM
      1 C         141.0008  140.9642  164.4512 C.ar    1  UNL1        0.0191
      2 C         141.9231  139.9892  163.7812 C.ar    1  UNL1        0.0023
      3 C         142.0635  139.9945  162.2879 C.ar    1  UNL1        0.0367
      4 C         141.2816  140.9746  161.4644 C.ar    1  UNL1        0.1385
      5 C         140.3593  141.9495  162.1344 C.ar    1  UNL1        0.0367
      6 C         140.2189  141.9443  163.6278 C.ar    1  UNL1        0.0023
      7 C         138.8588  139.3138  165.7506 C.3     1  UNL1        0.0300
      8 C         139.7894  140.1338  166.5943 C.3     1  UNL1        0.1779
      9 C         140.8603  140.9590  165.9446 C.3     1  UNL1        0.2102
     10 O         141.7908  141.7790  166.7883 O.3     1  UNL1       -0.4717
     11 C         141.6503  141.7738  168.2817 C.ar    1  UNL1        0.1559
     12 C         142.5808  142.5937  169.1254 C.ar    1  UNL1        0.0382
     13 C         142.4403  142.5885  170.6188 C.ar    1  UNL1        0.0032
     14 C         141.3693  141.7634  171.2685 C.ar    1  UNL1        0.0015
     15 C         140.4389  140.9434  170.4248 C.ar    1  UNL1        0.0214
     16 C         140.5794  140.9486  168.9315 C.ar    1  UNL1        0.1395
     17 S         139.6489  140.1286  168.0877 S.O2    1  UNL1        0.0137
     18 O         139.1216  139.7989  169.4528 O.2     1  UNL1       -0.1685
     19 O         138.5352  139.1941  167.7181 O.2     1  UNL1       -0.1685
     20 O         141.4221  140.9798  159.9710 O.3     1  UNL1       -0.4754
     21 C         142.7043  141.4354  159.3398 C.3     1  UNL1        0.2068
     22 C         143.3872  142.6741  159.8390 C.3     1  UNL1        0.0646
     23 C         144.6083  142.5611  160.7029 C.3     1  UNL1        0.0759
     24 N         144.4925  142.7212  162.1898 N.3     1  UNL1       -0.2726
     25 C         143.5588  143.6511  162.9064 C.3     1  UNL1        0.0721
     26 C         143.7793  143.4841  164.3806 C.3     1  UNL1        0.0188
     27 C         144.8493  142.4510  164.5752 C.3     1  UNL1        0.0188
     28 C         145.2901  141.9795  163.2211 C.3     1  UNL1        0.0721
@<TRIPOS>BOND
     1     8     7    1
     2     8     9    1
     3     9     1    1
     4     1     2   ar
     5     2     3   ar
     6     3     4   ar
     7     4    20    1
     8    20    21    1
     9    21    22    1
    10    22    23    1
    11    23    24    1
    12    24    25    1
    13    25    26    1
    14    26    27    1
    15    27    28    1
    16     4     5   ar
    17     5     6   ar
    18     9    10    1
    19    10    11    1
    20    11    12   ar
    21    12    13   ar
    22    13    14   ar
    23    14    15   ar
    24    15    16   ar
    25    16    17    1
    26    17    18    2
    27    17    19    2
    28    17     8    1
    29     6     1   ar
    30    16    11   ar
    31    28    24    1
@<TRIPOS>MOLECULE
*****
 28 31 0 0 0
SMALL
GASTEIGER

@<TRIPOS>ATOM
      1 C         139.9319  141.8668  164.7074 C.ar    1  UNL1        0.0191
      2 C         140.6696  142.8271  163.8222 C.ar    1  UNL1        0.0023
      3 C         140.0710  143.2529  162.5145 C.ar    1  UNL1        0.0367
      4 C         138.7347  142.7185  162.0918 C.ar    1  UNL1        0.1385
      5 C         137.9970  141.7581  162.9770 C.ar    1  UNL1        0.0367
      6 C         138.5956  141.3323  164.2847 C.ar    1  UNL1        0.0023
      7 C         142.0111  139.7052  164.7722 C.3     1  UNL1        0.0300
      8 C         141.5701  140.3601  166.0476 C.3     1  UNL1        0.1779
      9 C         140.5305  141.4409  166.0152 C.3     1  UNL1        0.2102
     10 O         140.0895  142.0958  167.2905 O.3     1  UNL1       -0.4717
     11 C         140.6881  141.6699  168.5984 C.ar    1  UNL1        0.1559
     12 C         140.2471  142.3248  169.8737 C.ar    1  UNL1        0.0382
     13 C         140.8457  141.8989  171.1815 C.ar    1  UNL1        0.0032
     14 C         141.8853  140.8181  171.2139 C.ar    1  UNL1        0.0015
     15 C         142.3263  140.1632  169.9385 C.ar    1  UNL1        0.0214
     16 C         141.7277  140.5891  168.6308 C.ar    1  UNL1        0.1395
     17 S         142.1687  139.9342  167.3553 S.O2    1  UNL1        0.0137
     18 O         143.0236  139.1912  168.3388 O.2     1  UNL1       -0.1685
     19 O         142.9067  139.0212  166.4215 O.2     1  UNL1       -0.1685
     20 O         138.1361  143.1444  160.7840 O.3     1  UNL1       -0.4754
     21 C         138.3928  142.3399  159.5443 C.3     1  UNL1        0.2068
     22 C         139.3293  141.1691  159.5906 C.3     1  UNL1        0.0646
     23 C         138.7828  139.7734  159.6494 C.3     1  UNL1        0.0759
     24 N         138.9981  138.9347  160.8743 N.3     1  UNL1       -0.2726
     25 C         140.3219  138.4614  161.3973 C.3     1  UNL1        0.0721
     26 C         140.0694  137.6562  162.6374 C.3     1  UNL1        0.0188
     27 C         138.5894  137.6319  162.8808 C.3     1  UNL1        0.0188
     28 C         137.9274  138.4221  161.7911 C.3     1  UNL1        0.0721
@<TRIPOS>BOND
     1     8     7    1
     2     8     9    1
     3     9     1    1
     4     1     2   ar
     5     2     3   ar
     6     3     4   ar
     7     4    20    1
     8    20    21    1
     9    21    22    1
    10    22    23    1
    11    23    24    1
    12    24    25    1
    13    25    26    1
    14    26    27    1
    15    27    28    1
    16     4     5   ar
    17     5     6   ar
    18     9    10    1
    19    10    11    1
    20    11    12   ar
    21    12    13   ar
    22    13    14   ar
    23    14    15   ar
    24    15    16   ar
    25    16    17    1
    26    17    18    2
    27    17    19    2
    28    17     8    1
    29     6     1   ar
    30    16    11   ar
    31    28    24    1
@<TRIPOS>MOLECULE
*****
 28 31 0 0 0
SMALL
GASTEIGER

@<TRIPOS>ATOM
      1 C         142.4546  141.2089  164.4802 C.ar    1  UNL1        0.0191
      2 C         141.2755  141.3309  163.5611 C.ar    1  UNL1        0.0023
      3 C         141.4879  141.4615  162.0820 C.ar    1  UNL1        0.0367
      4 C         142.8795  141.4701  161.5220 C.ar    1  UNL1        0.1385
      5 C         144.0585  141.3480  162.4412 C.ar    1  UNL1        0.0367
      6 C         143.8461  141.2174  163.9203 C.ar    1  UNL1        0.0023
      7 C         143.5427  138.8292  165.9475 C.3     1  UNL1        0.0300
      8 C         142.7862  139.8884  166.6930 C.3     1  UNL1        0.1779
      9 C         142.2421  141.0783  165.9594 C.3     1  UNL1        0.2102
     10 O         141.4857  142.1375  166.7049 O.3     1  UNL1       -0.4717
     11 C         141.2733  142.0069  168.1841 C.ar    1  UNL1        0.1559
     12 C         140.5168  143.0661  168.9295 C.ar    1  UNL1        0.0382
     13 C         140.3044  142.9355  170.4086 C.ar    1  UNL1        0.0032
     14 C         140.8485  141.7456  171.1423 C.ar    1  UNL1        0.0015
     15 C         141.6050  140.6864  170.3968 C.ar    1  UNL1        0.0214
     16 C         141.8173  140.8171  168.9177 C.ar    1  UNL1        0.1395
     17 S         142.5738  139.7578  168.1721 S.O2    1  UNL1        0.0137
     18 O         142.6311  139.1909  169.5598 O.2     1  UNL1       -0.1685
     19 O         143.3502  138.5017  167.9085 O.2     1  UNL1       -0.1685
     20 O         143.0919  141.6007  160.0429 O.3     1  UNL1       -0.4754
     21 C         143.4044  140.3862  159.2199 C.3     1  UNL1        0.2068
     22 C         142.3996  139.2782  159.1065 C.3     1  UNL1        0.0646
     23 C         142.5052  138.0759  159.9973 C.3     1  UNL1        0.0759
     24 N         141.6514  137.9759  161.2265 N.3     1  UNL1       -0.2726
     25 C         140.1551  138.0714  161.2708 C.3     1  UNL1        0.0721
     26 C         139.7229  137.9173  162.6989 C.3     1  UNL1        0.0188
     27 C         140.9522  137.7266  163.5372 C.3     1  UNL1        0.0188
     28 C         142.1440  137.7628  162.6271 C.3     1  UNL1        0.0721
@<TRIPOS>BOND
     1     8     7    1
     2     8     9    1
     3     9     1    1
     4     1     2   ar
     5     2     3   ar
     6     3     4   ar
     7     4    20    1
     8    20    21    1
     9    21    22    1
    10    22    23    1
    11    23    24    1
    12    24    25    1
    13    25    26    1
    14    26    27    1
    15    27    28    1
    16     4     5   ar
    17     5     6   ar
    18     9    10    1
    19    10    11    1
    20    11    12   ar
    21    12    13   ar
    22    13    14   ar
    23    14    15   ar
    24    15    16   ar
    25    16    17    1
    26    17    18    2
    27    17    19    2
    28    17     8    1
    29     6     1   ar
    30    16    11   ar
    31    28    24    1
