@<TRIPOS>MOLECULE
*****
 43 47 0 0 0
SMALL
GASTEIGER

@<TRIPOS>ATOM
      1 C         140.4126  138.8986  160.8826 C.3     1  UNL1        0.1505
      2 C         141.2059  138.5439  164.6655 C.ar    1  UNL1        0.2542
      3 N         141.1551  137.1053  164.2439 N.ar    1  UNL1       -0.1070
      4 N         140.8517  137.0630  162.7755 N.ar    1  UNL1       -0.1097
      5 C         140.7151  138.4756  162.2895 C.ar    1  UNL1        0.2440
      6 O         140.9340  139.3909  163.4577 O.2     1  UNL1       -0.4177
      7 C         142.8684  138.9728  166.6154 C.ar    1  UNL1        0.2295
      8 N         143.1430  139.4762  168.0014 N.ar    1  UNL1       -0.2115
      9 C         142.0296  140.0542  168.8238 C.ar    1  UNL1        0.0844
     10 C         142.3041  140.5576  170.2098 C.ar    1  UNL1        0.0192
     11 C         141.1907  141.1357  171.0320 C.ar    1  UNL1        0.0015
     12 C         139.8027  141.2103  170.4682 C.ar    1  UNL1        0.0001
     13 C         139.5281  140.7069  169.0822 C.ar    1  UNL1        0.0015
     14 C         140.6416  140.1289  168.2600 C.ar    1  UNL1        0.0181
     15 C         140.3670  139.6254  166.8738 C.ar    1  UNL1        0.0109
     16 C         141.4804  139.0474  166.0516 C.ar    1  UNL1        0.1082
     17 C         144.6802  139.2445  164.7732 C.3     1  UNL1        0.2542
     18 O         143.9819  138.3947  165.7931 O.3     1  UNL1       -0.4560
     19 N         141.5273  139.3102  159.9671 N.am    1  UNL1       -0.2942
     20 C         142.0858  140.7003  160.0433 C.2     1  UNL1        0.2538
     21 O         141.5295  141.6787  161.0349 O.2     1  UNL1       -0.2695
     22 H         141.8924  138.6681  159.3163 H       1  UNL1        0.1502
     23 C         143.2004  141.1120  159.1279 C.ar    1  UNL1        0.1033
     24 C         143.9852  142.3875  159.2124 C.ar    1  UNL1        0.1105
     25 N         144.9959  142.3843  158.1040 N.ar    1  UNL1       -0.2346
     26 C         144.8357  141.1068  157.3344 C.ar    1  UNL1        0.1347
     27 S         143.7260  140.3204  157.9673 S.2     1  UNL1       -0.0599
     28 C         138.9955  138.9099  160.3910 C.3     1  UNL1        0.0292
     29 C         137.8855  139.3218  161.3120 C.3     1  UNL1        0.0040
     30 C         137.6575  140.7744  161.6089 C.3     1  UNL1        0.0213
     31 C         138.1099  141.3526  162.9170 C.3     1  UNL1        0.0897
     32 N         139.5251  141.8221  163.0800 N.am    1  UNL1       -0.3009
     33 C         139.8836  142.7466  164.2056 C.2     1  UNL1        0.2463
     34 O         138.8269  143.2015  165.1680 O.2     1  UNL1       -0.2701
     35 H         140.2187  141.5236  162.4483 H       1  UNL1        0.1497
     36 C         141.2988  143.2162  164.3686 C.ar    1  UNL1        0.0590
     37 C         142.2529  142.4388  165.2262 C.ar    1  UNL1        0.0050
     38 C         143.6682  142.9084  165.3891 C.ar    1  UNL1        0.0002
     39 C         144.1294  144.1553  164.6946 C.ar    1  UNL1        0.0005
     40 C         143.1753  144.9328  163.8371 C.ar    1  UNL1        0.0063
     41 C         141.7600  144.4631  163.6741 C.ar    1  UNL1        0.0296
     42 S         140.8059  145.2405  162.8165 S.3     1  UNL1       -0.1126
     43 C         140.9148  145.1727  161.3220 C.3     1  UNL1        0.0742
@<TRIPOS>BOND
     1    17    18    1
     2    18     7    1
     3     7     8   ar
     4     8     9   ar
     5     9    10   ar
     6    10    11   ar
     7    11    12   ar
     8    12    13   ar
     9    13    14   ar
    10    14    15   ar
    11    15    16   ar
    12    16     2    1
    13     2     3   ar
    14     3     4   ar
    15     4     5   ar
    16     5     1    1
    17     1    28    1
    18    28    29    1
    19    29    30    1
    20    30    31    1
    21    31    32    1
    22    32    33   am
    23    33    34    2
    24    33    36    1
    25    36    37   ar
    26    37    38   ar
    27    38    39   ar
    28    39    40   ar
    29    40    41   ar
    30    41    42    1
    31    42    43    1
    32     1    19    1
    33    19    20   am
    34    20    21    2
    35    20    23    1
    36    23    24   ar
    37    24    25   ar
    38    25    26   ar
    39    26    27   ar
    40     5     6   ar
    41    16     7   ar
    42     6     2   ar
    43    14     9   ar
    44    41    36   ar
    45    27    23   ar
    46    32    35    1
    47    19    22    1
@<TRIPOS>MOLECULE
*****
 43 47 0 0 0
SMALL
GASTEIGER

@<TRIPOS>ATOM
      1 C         141.6878  139.3219  158.7677 C.3     1  UNL1        0.1505
      2 C         143.0979  140.1786  162.2810 C.ar    1  UNL1        0.2542
      3 N         144.3273  139.6635  161.5930 N.ar    1  UNL1       -0.1070
      4 N         143.9487  139.2799  160.1931 N.ar    1  UNL1       -0.1097
      5 C         142.4853  139.5579  160.0160 C.ar    1  UNL1        0.2440
      6 O         141.9595  140.1133  161.3064 O.2     1  UNL1       -0.4177
      7 C         143.0316  142.1455  163.9771 C.ar    1  UNL1        0.2295
      8 N         142.9542  142.6392  165.3914 N.ar    1  UNL1       -0.2115
      9 C         142.8657  141.6596  166.5240 C.ar    1  UNL1        0.0844
     10 C         142.7883  142.1534  167.9383 C.ar    1  UNL1        0.0192
     11 C         142.6997  141.1738  169.0708 C.ar    1  UNL1        0.0015
     12 C         142.6886  139.7006  168.7890 C.ar    1  UNL1        0.0001
     13 C         142.7660  139.2068  167.3747 C.ar    1  UNL1        0.0015
     14 C         142.8545  140.1864  166.2422 C.ar    1  UNL1        0.0181
     15 C         142.9320  139.6927  164.8278 C.ar    1  UNL1        0.0109
     16 C         143.0205  140.6722  163.6953 C.ar    1  UNL1        0.1082
     17 C         144.4581  143.6330  162.3951 C.3     1  UNL1        0.2542
     18 O         143.1202  143.1251  162.8445 O.3     1  UNL1       -0.4560
     19 N         141.5605  137.9353  158.2099 N.am    1  UNL1       -0.2942
     20 C         142.5819  137.4206  157.2395 C.2     1  UNL1        0.2538
     21 O         143.7306  138.2925  156.8268 O.2     1  UNL1       -0.2695
     22 H         140.8066  137.3631  158.4807 H       1  UNL1        0.1502
     23 C         142.4546  136.0341  156.6817 C.ar    1  UNL1        0.1033
     24 C         143.2626  134.8398  157.0951 C.ar    1  UNL1        0.1105
     25 N         142.8044  133.6658  156.2814 N.ar    1  UNL1       -0.2346
     26 C         141.7132  134.1346  155.3652 C.ar    1  UNL1        0.1347
     27 S         141.4970  135.5982  155.6126 S.2     1  UNL1       -0.0599
     28 C         141.0176  140.4726  158.0772 C.3     1  UNL1        0.0292
     29 C         140.0495  141.3373  158.8287 C.3     1  UNL1        0.0040
     30 C         140.4394  142.7306  159.2247 C.3     1  UNL1        0.0213
     31 C         140.0846  143.2504  160.5864 C.3     1  UNL1        0.0897
     32 N         140.1521  142.3409  161.7774 N.am    1  UNL1       -0.3009
     33 C         138.8883  141.8733  162.4364 C.2     1  UNL1        0.2463
     34 O         137.5573  142.3151  161.9046 O.2     1  UNL1       -0.2701
     35 H         141.0257  142.0509  162.1264 H       1  UNL1        0.1497
     36 C         138.9558  140.9639  163.6273 C.ar    1  UNL1        0.0590
     37 C         139.3652  141.5076  164.9640 C.ar    1  UNL1        0.0050
     38 C         139.4326  140.5980  166.1550 C.ar    1  UNL1        0.0002
     39 C         139.0907  139.1448  166.0092 C.ar    1  UNL1        0.0005
     40 C         138.6812  138.6011  164.6725 C.ar    1  UNL1        0.0063
     41 C         138.6138  139.5107  163.4815 C.ar    1  UNL1        0.0296
     42 S         138.2044  138.9670  162.1448 S.3     1  UNL1       -0.1126
     43 C         139.1777  138.1672  161.3303 C.3     1  UNL1        0.0742
@<TRIPOS>BOND
     1    17    18    1
     2    18     7    1
     3     7     8   ar
     4     8     9   ar
     5     9    10   ar
     6    10    11   ar
     7    11    12   ar
     8    12    13   ar
     9    13    14   ar
    10    14    15   ar
    11    15    16   ar
    12    16     2    1
    13     2     3   ar
    14     3     4   ar
    15     4     5   ar
    16     5     1    1
    17     1    28    1
    18    28    29    1
    19    29    30    1
    20    30    31    1
    21    31    32    1
    22    32    33   am
    23    33    34    2
    24    33    36    1
    25    36    37   ar
    26    37    38   ar
    27    38    39   ar
    28    39    40   ar
    29    40    41   ar
    30    41    42    1
    31    42    43    1
    32     1    19    1
    33    19    20   am
    34    20    21    2
    35    20    23    1
    36    23    24   ar
    37    24    25   ar
    38    25    26   ar
    39    26    27   ar
    40     5     6   ar
    41    16     7   ar
    42     6     2   ar
    43    14     9   ar
    44    41    36   ar
    45    27    23   ar
    46    32    35    1
    47    19    22    1
@<TRIPOS>MOLECULE
*****
 43 47 0 0 0
SMALL
GASTEIGER

@<TRIPOS>ATOM
      1 C         138.2076  141.6792  160.9774 C.3     1  UNL1        0.1505
      2 C         139.1136  141.8537  164.7476 C.ar    1  UNL1        0.2542
      3 N         138.2080  143.0417  164.6118 N.ar    1  UNL1       -0.1070
      4 N         137.7584  143.1210  163.1830 N.ar    1  UNL1       -0.1097
      5 C         138.3861  141.9819  162.4356 C.ar    1  UNL1        0.2440
      6 O         139.2237  141.1986  163.4027 O.2     1  UNL1       -0.4177
      7 C         139.2682  140.2069  166.7512 C.ar    1  UNL1        0.2295
      8 N         139.9449  139.7534  168.0107 N.ar    1  UNL1       -0.2115
      9 C         141.1437  140.4932  168.5262 C.ar    1  UNL1        0.0844
     10 C         141.8204  140.0397  169.7857 C.ar    1  UNL1        0.0192
     11 C         143.0192  140.7794  170.3012 C.ar    1  UNL1        0.0015
     12 C         143.5413  141.9726  169.5571 C.ar    1  UNL1        0.0001
     13 C         142.8646  142.4261  168.2976 C.ar    1  UNL1        0.0015
     14 C         141.6658  141.6864  167.7822 C.ar    1  UNL1        0.0181
     15 C         140.9891  142.1399  166.5226 C.ar    1  UNL1        0.0109
     16 C         139.7903  141.4002  166.0072 C.ar    1  UNL1        0.1082
     17 C         138.0326  137.9686  166.2893 C.3     1  UNL1        0.2542
     18 O         138.0694  139.4672  166.2357 O.3     1  UNL1       -0.4560
     19 N         138.3555  142.7724  159.9609 N.am    1  UNL1       -0.2942
     20 C         139.6838  143.0140  159.3072 C.2     1  UNL1        0.2538
     21 O         140.8642  142.1624  159.6700 O.2     1  UNL1       -0.2695
     22 H         137.5808  143.3313  159.7228 H       1  UNL1        0.1502
     23 C         139.8317  144.1070  158.2908 C.ar    1  UNL1        0.1033
     24 C         140.3181  145.5004  158.5590 C.ar    1  UNL1        0.1105
     25 N         140.3062  146.2533  157.2616 N.ar    1  UNL1       -0.2346
     26 C         139.8125  145.3253  156.1917 C.ar    1  UNL1        0.1347
     27 S         139.5192  143.9987  156.8278 S.2     1  UNL1       -0.0599
     28 C         137.8813  140.2834  160.5356 C.3     1  UNL1        0.0292
     29 C         138.9858  139.3226  160.2088 C.3     1  UNL1        0.0040
     30 C         139.3784  138.2664  161.1988 C.3     1  UNL1        0.0213
     31 C         140.7625  138.2578  161.7771 C.3     1  UNL1        0.0897
     32 N         141.2303  139.4069  162.6202 N.am    1  UNL1       -0.3009
     33 C         142.4065  140.2284  162.1822 C.2     1  UNL1        0.2463
     34 O         143.1148  139.9009  160.9012 O.2     1  UNL1       -0.2701
     35 H         140.7654  139.6218  163.4609 H       1  UNL1        0.1497
     36 C         142.8742  141.3774  163.0253 C.ar    1  UNL1        0.0590
     37 C         142.2773  142.7402  162.8336 C.ar    1  UNL1        0.0050
     38 C         142.7451  143.8893  163.6767 C.ar    1  UNL1        0.0002
     39 C         143.8098  143.6756  164.7115 C.ar    1  UNL1        0.0005
     40 C         144.4067  142.3129  164.9032 C.ar    1  UNL1        0.0063
     41 C         143.9389  141.1638  164.0601 C.ar    1  UNL1        0.0296
     42 S         144.5358  139.8011  164.2518 S.3     1  UNL1       -0.1126
     43 C         143.9738  138.8754  165.2898 C.3     1  UNL1        0.0742
@<TRIPOS>BOND
     1    17    18    1
     2    18     7    1
     3     7     8   ar
     4     8     9   ar
     5     9    10   ar
     6    10    11   ar
     7    11    12   ar
     8    12    13   ar
     9    13    14   ar
    10    14    15   ar
    11    15    16   ar
    12    16     2    1
    13     2     3   ar
    14     3     4   ar
    15     4     5   ar
    16     5     1    1
    17     1    28    1
    18    28    29    1
    19    29    30    1
    20    30    31    1
    21    31    32    1
    22    32    33   am
    23    33    34    2
    24    33    36    1
    25    36    37   ar
    26    37    38   ar
    27    38    39   ar
    28    39    40   ar
    29    40    41   ar
    30    41    42    1
    31    42    43    1
    32     1    19    1
    33    19    20   am
    34    20    21    2
    35    20    23    1
    36    23    24   ar
    37    24    25   ar
    38    25    26   ar
    39    26    27   ar
    40     5     6   ar
    41    16     7   ar
    42     6     2   ar
    43    14     9   ar
    44    41    36   ar
    45    27    23   ar
    46    32    35    1
    47    19    22    1
@<TRIPOS>MOLECULE
*****
 43 47 0 0 0
SMALL
GASTEIGER

@<TRIPOS>ATOM
      1 C         141.8368  138.2964  157.4485 C.3     1  UNL1        0.1505
      2 C         142.7963  139.6384  160.9619 C.ar    1  UNL1        0.2542
      3 N         144.0709  139.8690  160.2055 N.ar    1  UNL1       -0.1070
      4 N         143.8667  139.3944  158.7973 N.ar    1  UNL1       -0.1097
      5 C         142.4657  138.8704  158.6834 C.ar    1  UNL1        0.2440
      6 O         141.8042  139.0212  160.0213 O.2     1  UNL1       -0.4177
      7 C         141.8120  141.2157  162.7766 C.ar    1  UNL1        0.2295
      8 N         141.5715  141.5445  164.2202 N.ar    1  UNL1       -0.2115
      9 C         142.0751  140.6247  165.2929 C.ar    1  UNL1        0.0844
     10 C         141.8347  140.9535  166.7365 C.ar    1  UNL1        0.0192
     11 C         142.3382  140.0338  167.8091 C.ar    1  UNL1        0.0015
     12 C         143.0822  138.7852  167.4381 C.ar    1  UNL1        0.0001
     13 C         143.3226  138.4564  165.9945 C.ar    1  UNL1        0.0015
     14 C         142.8191  139.3762  164.9219 C.ar    1  UNL1        0.0181
     15 C         143.0595  139.0474  163.4782 C.ar    1  UNL1        0.0109
     16 C         142.5559  139.9671  162.4056 C.ar    1  UNL1        0.1082
     17 C         142.1393  143.3060  161.2688 C.3     1  UNL1        0.2542
     18 O         141.3084  142.1354  161.7040 O.3     1  UNL1       -0.4560
     19 N         141.7127  136.8098  157.2917 N.am    1  UNL1       -0.2942
     20 C         142.8242  136.0272  156.6576 C.2     1  UNL1        0.2538
     21 O         144.0598  136.7312  156.1804 O.2     1  UNL1       -0.2695
     22 H         140.9018  136.3477  157.6049 H       1  UNL1        0.1502
     23 C         142.7002  134.5406  156.5007 C.ar    1  UNL1        0.1033
     24 C         141.7744  133.8275  155.5604 C.ar    1  UNL1        0.1105
     25 N         141.9821  132.3522  155.7352 N.ar    1  UNL1       -0.2346
     26 C         143.0363  132.1536  156.7835 C.ar    1  UNL1        0.1347
     27 S         143.4801  133.5062  157.2567 S.2     1  UNL1       -0.0599
     28 C         141.3319  139.2091  156.3705 C.3     1  UNL1        0.0292
     29 C         140.0853  140.0134  156.5917 C.3     1  UNL1        0.0040
     30 C         140.1165  141.2124  157.4925 C.3     1  UNL1        0.0213
     31 C         139.1025  141.3534  158.5889 C.3     1  UNL1        0.0897
     32 N         139.3908  140.7997  159.9528 N.am    1  UNL1       -0.3009
     33 C         138.3690  139.9501  160.6486 C.2     1  UNL1        0.2463
     34 O         137.0590  139.6542  159.9806 O.2     1  UNL1       -0.2701
     35 H         140.2506  140.9939  160.3913 H       1  UNL1        0.1497
     36 C         138.6573  139.3963  162.0125 C.ar    1  UNL1        0.0590
     37 C         139.4023  138.1022  162.1545 C.ar    1  UNL1        0.0050
     38 C         139.6906  137.5485  163.5185 C.ar    1  UNL1        0.0002
     39 C         139.2339  138.2889  164.7405 C.ar    1  UNL1        0.0005
     40 C         138.4888  139.5831  164.5985 C.ar    1  UNL1        0.0063
     41 C         138.2005  140.1368  163.2345 C.ar    1  UNL1        0.0296
     42 S         137.4555  141.4309  163.0925 S.3     1  UNL1       -0.1126
     43 C         138.2062  142.7293  163.0636 C.3     1  UNL1        0.0742
@<TRIPOS>BOND
     1    17    18    1
     2    18     7    1
     3     7     8   ar
     4     8     9   ar
     5     9    10   ar
     6    10    11   ar
     7    11    12   ar
     8    12    13   ar
     9    13    14   ar
    10    14    15   ar
    11    15    16   ar
    12    16     2    1
    13     2     3   ar
    14     3     4   ar
    15     4     5   ar
    16     5     1    1
    17     1    28    1
    18    28    29    1
    19    29    30    1
    20    30    31    1
    21    31    32    1
    22    32    33   am
    23    33    34    2
    24    33    36    1
    25    36    37   ar
    26    37    38   ar
    27    38    39   ar
    28    39    40   ar
    29    40    41   ar
    30    41    42    1
    31    42    43    1
    32     1    19    1
    33    19    20   am
    34    20    21    2
    35    20    23    1
    36    23    24   ar
    37    24    25   ar
    38    25    26   ar
    39    26    27   ar
    40     5     6   ar
    41    16     7   ar
    42     6     2   ar
    43    14     9   ar
    44    41    36   ar
    45    27    23   ar
    46    32    35    1
    47    19    22    1
@<TRIPOS>MOLECULE
*****
 43 47 0 0 0
SMALL
GASTEIGER

@<TRIPOS>ATOM
      1 C         142.2618  144.0961  161.0567 C.3     1  UNL1        0.1505
      2 C         142.6862  142.8178  164.6970 C.ar    1  UNL1        0.2542
      3 N         143.8476  143.7602  164.5835 N.ar    1  UNL1       -0.1070
      4 N         143.8300  144.3538  163.2061 N.ar    1  UNL1       -0.1097
      5 C         142.6577  143.7782  162.4682 C.ar    1  UNL1        0.2440
      6 O         141.9507  142.8289  163.3897 O.2     1  UNL1       -0.4177
      7 C         142.9404  140.6554  166.1145 C.ar    1  UNL1        0.2295
      8 N         142.5780  139.8442  167.3230 N.ar    1  UNL1       -0.2115
      9 C         141.5988  140.3844  168.3228 C.ar    1  UNL1        0.0844
     10 C         141.2364  139.5732  169.5314 C.ar    1  UNL1        0.0192
     11 C         140.2573  140.1134  170.5311 C.ar    1  UNL1        0.0015
     12 C         139.6406  141.4647  170.3223 C.ar    1  UNL1        0.0001
     13 C         140.0030  142.2758  169.1137 C.ar    1  UNL1        0.0015
     14 C         140.9821  141.7357  168.1140 C.ar    1  UNL1        0.0181
     15 C         141.3446  142.5468  166.9054 C.ar    1  UNL1        0.0109
     16 C         142.3237  142.0067  165.9056 C.ar    1  UNL1        0.1082
     17 C         143.5291  138.9732  164.2240 C.3     1  UNL1        0.2542
     18 O         143.9196  140.1152  165.1147 O.3     1  UNL1       -0.4560
     19 N         143.1251  143.6451  159.9160 N.am    1  UNL1       -0.2942
     20 C         143.1663  142.1951  159.5342 C.2     1  UNL1        0.2538
     21 O         142.3441  141.1961  160.2931 O.2     1  UNL1       -0.2695
     22 H         143.6648  144.3008  159.4179 H       1  UNL1        0.1502
     23 C         144.0296  141.7442  158.3935 C.ar    1  UNL1        0.1033
     24 C         145.2697  142.4298  157.9016 C.ar    1  UNL1        0.1105
     25 N         145.8110  141.6378  156.7484 N.ar    1  UNL1       -0.2346
     26 C         144.9054  140.4626  156.5276 C.ar    1  UNL1        0.1347
     27 S         143.8044  140.5284  157.5443 S.2     1  UNL1       -0.0599
     28 C         141.0026  144.8649  160.7861 C.3     1  UNL1        0.0292
     29 C         140.1873  145.3949  161.9281 C.3     1  UNL1        0.0040
     30 C         138.9350  144.6844  162.3488 C.3     1  UNL1        0.0213
     31 C         138.7410  144.2924  163.7837 C.3     1  UNL1        0.0897
     32 N         139.0449  142.8917  164.2262 N.am    1  UNL1       -0.3009
     33 C         138.1164  141.7717  163.8607 C.2     1  UNL1        0.2463
     34 O         136.8842  142.0524  163.0527 O.2     1  UNL1       -0.2701
     35 H         139.8536  142.7075  164.7566 H       1  UNL1        0.1497
     36 C         138.4202  140.3711  164.3032 C.ar    1  UNL1        0.0590
     37 C         138.4673  140.0401  165.7655 C.ar    1  UNL1        0.0050
     38 C         138.7712  138.6393  166.2080 C.ar    1  UNL1        0.0002
     39 C         139.0279  137.5697  165.1882 C.ar    1  UNL1        0.0005
     40 C         138.9808  137.9007  163.7259 C.ar    1  UNL1        0.0063
     41 C         138.6770  139.3015  163.2835 C.ar    1  UNL1        0.0296
     42 S         138.6299  139.6325  161.8212 S.3     1  UNL1       -0.1126
     43 C         138.9988  138.5929  160.8046 C.3     1  UNL1        0.0742
@<TRIPOS>BOND
     1    17    18    1
     2    18     7    1
     3     7     8   ar
     4     8     9   ar
     5     9    10   ar
     6    10    11   ar
     7    11    12   ar
     8    12    13   ar
     9    13    14   ar
    10    14    15   ar
    11    15    16   ar
    12    16     2    1
    13     2     3   ar
    14     3     4   ar
    15     4     5   ar
    16     5     1    1
    17     1    28    1
    18    28    29    1
    19    29    30    1
    20    30    31    1
    21    31    32    1
    22    32    33   am
    23    33    34    2
    24    33    36    1
    25    36    37   ar
    26    37    38   ar
    27    38    39   ar
    28    39    40   ar
    29    40    41   ar
    30    41    42    1
    31    42    43    1
    32     1    19    1
    33    19    20   am
    34    20    21    2
    35    20    23    1
    36    23    24   ar
    37    24    25   ar
    38    25    26   ar
    39    26    27   ar
    40     5     6   ar
    41    16     7   ar
    42     6     2   ar
    43    14     9   ar
    44    41    36   ar
    45    27    23   ar
    46    32    35    1
    47    19    22    1
@<TRIPOS>MOLECULE
*****
 43 47 0 0 0
SMALL
GASTEIGER

@<TRIPOS>ATOM
      1 C         138.5111  142.1254  160.1396 C.3     1  UNL1        0.1505
      2 C         139.6564  142.5447  163.8244 C.ar    1  UNL1        0.2542
      3 N         138.5937  143.5990  163.7295 N.ar    1  UNL1       -0.1070
      4 N         138.0353  143.5703  162.3376 N.ar    1  UNL1       -0.1097
      5 C         138.7529  142.4982  161.5722 C.ar    1  UNL1        0.2440
      6 O         139.7549  141.8643  162.4912 O.2     1  UNL1       -0.4177
      7 C         141.8594  142.7910  165.1795 C.ar    1  UNL1        0.2295
      8 N         142.6797  142.4728  166.3944 N.ar    1  UNL1       -0.2115
      9 C         142.1174  141.5902  167.4690 C.ar    1  UNL1        0.0844
     10 C         142.9377  141.2721  168.6838 C.ar    1  UNL1        0.0192
     11 C         142.3754  140.3895  169.7584 C.ar    1  UNL1        0.0015
     12 C         140.9928  139.8250  169.6182 C.ar    1  UNL1        0.0001
     13 C         140.1724  140.1431  168.4034 C.ar    1  UNL1        0.0015
     14 C         140.7347  141.0257  167.3288 C.ar    1  UNL1        0.0181
     15 C         139.9144  141.3439  166.1139 C.ar    1  UNL1        0.0109
     16 C         140.4767  142.2265  165.0393 C.ar    1  UNL1        0.1082
     17 C         143.1895  143.0718  162.9655 C.3     1  UNL1        0.2542
     18 O         142.4217  143.6736  164.1049 O.3     1  UNL1       -0.4560
     19 N         138.5598  143.1782  159.0722 N.am    1  UNL1       -0.2942
     20 C         139.8438  143.4517  158.3466 C.2     1  UNL1        0.2538
     21 O         141.0791  142.6725  158.6884 O.2     1  UNL1       -0.2695
     22 H         137.7491  143.6896  158.8478 H       1  UNL1        0.1502
     23 C         139.8925  144.5044  157.2792 C.ar    1  UNL1        0.1033
     24 C         140.3023  145.9347  157.4696 C.ar    1  UNL1        0.1105
     25 N         140.2031  146.6261  156.1421 N.ar    1  UNL1       -0.2346
     26 C         139.7320  145.6230  155.1313 C.ar    1  UNL1        0.1347
     27 S         139.5400  144.3117  155.8341 S.2     1  UNL1       -0.0599
     28 C         138.2206  140.6999  159.7743 C.3     1  UNL1        0.0292
     29 C         137.4692  139.8194  160.7283 C.3     1  UNL1        0.0040
     30 C         138.1585  138.6551  161.3759 C.3     1  UNL1        0.0213
     31 C         138.3335  138.6208  162.8653 C.3     1  UNL1        0.0897
     32 N         139.6443  139.0194  163.4758 N.am    1  UNL1       -0.3009
     33 C         140.8334  138.1127  163.3571 C.2     1  UNL1        0.2463
     34 O         140.7117  136.8076  162.6280 O.2     1  UNL1       -0.2701
     35 H         139.7243  139.8760  163.9544 H       1  UNL1        0.1497
     36 C         142.1443  138.5113  163.9677 C.ar    1  UNL1        0.0590
     37 C         142.3992  138.2633  165.4249 C.ar    1  UNL1        0.0050
     38 C         143.7101  138.6619  166.0354 C.ar    1  UNL1        0.0002
     39 C         144.7661  139.3086  165.1887 C.ar    1  UNL1        0.0005
     40 C         144.5111  139.5566  163.7315 C.ar    1  UNL1        0.0063
     41 C         143.2002  139.1579  163.1210 C.ar    1  UNL1        0.0296
     42 S         142.9452  139.4059  161.6637 S.3     1  UNL1       -0.1126
     43 C         143.9823  140.0956  160.8276 C.3     1  UNL1        0.0742
@<TRIPOS>BOND
     1    17    18    1
     2    18     7    1
     3     7     8   ar
     4     8     9   ar
     5     9    10   ar
     6    10    11   ar
     7    11    12   ar
     8    12    13   ar
     9    13    14   ar
    10    14    15   ar
    11    15    16   ar
    12    16     2    1
    13     2     3   ar
    14     3     4   ar
    15     4     5   ar
    16     5     1    1
    17     1    28    1
    18    28    29    1
    19    29    30    1
    20    30    31    1
    21    31    32    1
    22    32    33   am
    23    33    34    2
    24    33    36    1
    25    36    37   ar
    26    37    38   ar
    27    38    39   ar
    28    39    40   ar
    29    40    41   ar
    30    41    42    1
    31    42    43    1
    32     1    19    1
    33    19    20   am
    34    20    21    2
    35    20    23    1
    36    23    24   ar
    37    24    25   ar
    38    25    26   ar
    39    26    27   ar
    40     5     6   ar
    41    16     7   ar
    42     6     2   ar
    43    14     9   ar
    44    41    36   ar
    45    27    23   ar
    46    32    35    1
    47    19    22    1
@<TRIPOS>MOLECULE
*****
 43 47 0 0 0
SMALL
GASTEIGER

@<TRIPOS>ATOM
      1 C         142.2040  143.0289  159.4003 C.3     1  UNL1        0.1505
      2 C         141.8346  143.2368  163.2585 C.ar    1  UNL1        0.2542
      3 N         142.2515  144.6400  162.9312 N.ar    1  UNL1       -0.1070
      4 N         142.4406  144.7330  161.4461 N.ar    1  UNL1       -0.1097
      5 C         142.1406  143.3871  160.8555 C.ar    1  UNL1        0.2440
      6 O         141.7661  142.4624  161.9757 O.2     1  UNL1       -0.4177
      7 C         140.4585  143.3276  165.4604 C.ar    1  UNL1        0.2295
      8 N         140.1622  142.7926  166.8300 N.ar    1  UNL1       -0.2115
      9 C         140.9456  141.6318  167.3676 C.ar    1  UNL1        0.0844
     10 C         140.6492  141.0968  168.7372 C.ar    1  UNL1        0.0192
     11 C         141.4325  139.9360  169.2746 C.ar    1  UNL1        0.0015
     12 C         142.5123  139.3102  168.4424 C.ar    1  UNL1        0.0001
     13 C         142.8086  139.8452  167.0728 C.ar    1  UNL1        0.0015
     14 C         142.0253  141.0060  166.5354 C.ar    1  UNL1        0.0181
     15 C         142.3216  141.5410  165.1656 C.ar    1  UNL1        0.0109
     16 C         141.5383  142.7018  164.6282 C.ar    1  UNL1        0.1082
     17 C         138.3958  144.2490  164.1774 C.3     1  UNL1        0.2542
     18 O         139.6752  144.4885  164.9229 O.3     1  UNL1       -0.4560
     19 N         141.1174  143.4785  158.4691 N.am    1  UNL1       -0.2942
     20 C         141.2166  144.8119  157.7892 C.2     1  UNL1        0.2538
     21 O         142.4024  145.6955  158.0404 O.2     1  UNL1       -0.2695
     22 H         140.3392  142.8986  158.3043 H       1  UNL1        0.1502
     23 C         140.1300  145.2615  156.8581 C.ar    1  UNL1        0.1033
     24 C         139.7456  146.6831  156.5729 C.ar    1  UNL1        0.1105
     25 N         138.6150  146.6688  155.5871 N.ar    1  UNL1       -0.2346
     26 C         138.3007  145.2385  155.2631 C.ar    1  UNL1        0.1347
     27 S         139.2371  144.3687  156.0486 S.2     1  UNL1       -0.0599
     28 C         143.3541  142.2209  158.8763 C.3     1  UNL1        0.0292
     29 C         143.9012  141.0825  159.6854 C.3     1  UNL1        0.0040
     30 C         143.1492  139.7869  159.7613 C.3     1  UNL1        0.0213
     31 C         143.1556  138.9892  161.0317 C.3     1  UNL1        0.0897
     32 N         142.2512  139.3755  162.1644 N.am    1  UNL1       -0.3009
     33 C         140.9279  138.6900  162.3346 C.2     1  UNL1        0.2463
     34 O         140.5090  137.6184  161.3724 O.2     1  UNL1       -0.2701
     35 H         142.5262  140.0788  162.7960 H       1  UNL1        0.1497
     36 C         140.0235  139.0763  163.4673 C.ar    1  UNL1        0.0590
     37 C         140.1521  138.3928  164.7963 C.ar    1  UNL1        0.0050
     38 C         139.2477  138.7791  165.9290 C.ar    1  UNL1        0.0002
     39 C         138.2147  139.8488  165.7326 C.ar    1  UNL1        0.0005
     40 C         138.0861  140.5323  164.4035 C.ar    1  UNL1        0.0063
     41 C         138.9905  140.1460  163.2709 C.ar    1  UNL1        0.0296
     42 S         138.8619  140.8295  161.9418 S.3     1  UNL1       -0.1126
     43 C         137.8932  140.3091  160.9215 C.3     1  UNL1        0.0742
@<TRIPOS>BOND
     1    17    18    1
     2    18     7    1
     3     7     8   ar
     4     8     9   ar
     5     9    10   ar
     6    10    11   ar
     7    11    12   ar
     8    12    13   ar
     9    13    14   ar
    10    14    15   ar
    11    15    16   ar
    12    16     2    1
    13     2     3   ar
    14     3     4   ar
    15     4     5   ar
    16     5     1    1
    17     1    28    1
    18    28    29    1
    19    29    30    1
    20    30    31    1
    21    31    32    1
    22    32    33   am
    23    33    34    2
    24    33    36    1
    25    36    37   ar
    26    37    38   ar
    27    38    39   ar
    28    39    40   ar
    29    40    41   ar
    30    41    42    1
    31    42    43    1
    32     1    19    1
    33    19    20   am
    34    20    21    2
    35    20    23    1
    36    23    24   ar
    37    24    25   ar
    38    25    26   ar
    39    26    27   ar
    40     5     6   ar
    41    16     7   ar
    42     6     2   ar
    43    14     9   ar
    44    41    36   ar
    45    27    23   ar
    46    32    35    1
    47    19    22    1
@<TRIPOS>MOLECULE
*****
 43 47 0 0 0
SMALL
GASTEIGER

@<TRIPOS>ATOM
      1 C         143.0394  139.3008  157.7768 C.3     1  UNL1        0.1505
      2 C         142.4425  139.5122  161.6063 C.ar    1  UNL1        0.2542
      3 N         143.9257  139.2937  161.5557 N.ar    1  UNL1       -0.1070
      4 N         144.3298  139.1879  160.1151 N.ar    1  UNL1       -0.1097
      5 C         143.0964  139.3410  159.2752 C.ar    1  UNL1        0.2440
      6 O         141.9299  139.5414  160.1969 O.2     1  UNL1       -0.4177
      7 C         141.7107  140.9356  163.6528 C.ar    1  UNL1        0.2295
      8 N         140.8851  141.0966  164.8947 N.ar    1  UNL1       -0.2115
      9 C         139.9655  139.9952  165.3321 C.ar    1  UNL1        0.0844
     10 C         139.1398  140.1562  166.5739 C.ar    1  UNL1        0.0192
     11 C         138.2203  139.0548  167.0112 C.ar    1  UNL1        0.0015
     12 C         138.1264  137.7923  166.2066 C.ar    1  UNL1        0.0001
     13 C         138.9520  137.6313  164.9647 C.ar    1  UNL1        0.0015
     14 C         139.8716  138.7327  164.5274 C.ar    1  UNL1        0.0181
     15 C         140.6973  138.5717  163.2855 C.ar    1  UNL1        0.0109
     16 C         141.6168  139.6732  162.8482 C.ar    1  UNL1        0.1082
     17 C         143.1748  143.0045  164.2244 C.3     1  UNL1        0.2542
     18 O         142.6304  142.0371  163.2155 O.3     1  UNL1       -0.4560
     19 N         143.3289  138.0213  157.0493 N.am    1  UNL1       -0.2942
     20 C         142.2188  137.0543  156.7620 C.2     1  UNL1        0.2538
     21 O         140.8193  137.3666  157.2022 O.2     1  UNL1       -0.2695
     22 H         144.2474  137.8163  156.7604 H       1  UNL1        0.1502
     23 C         142.5083  135.7749  156.0346 C.ar    1  UNL1        0.1033
     24 C         142.2807  135.5202  154.5740 C.ar    1  UNL1        0.1105
     25 N         142.7079  134.1134  154.2766 N.ar    1  UNL1       -0.2346
     26 C         143.1995  133.4986  155.5534 C.ar    1  UNL1        0.1347
     27 S         143.0761  134.5255  156.6399 S.2     1  UNL1       -0.0599
     28 C         142.6929  140.5400  157.0060 C.3     1  UNL1        0.0292
     29 C         142.0841  141.7159  157.7106 C.3     1  UNL1        0.0040
     30 C         142.9669  142.7639  158.3210 C.3     1  UNL1        0.0213
     31 C         142.5407  143.4651  159.5767 C.3     1  UNL1        0.0897
     32 N         141.5841  142.7983  160.5203 N.am    1  UNL1       -0.3009
     33 C         140.1220  143.1287  160.4637 C.2     1  UNL1        0.2463
     34 O         139.6165  144.1256  159.4636 O.2     1  UNL1       -0.2701
     35 H         141.9159  142.1440  161.1768 H       1  UNL1        0.1497
     36 C         139.1655  142.4619  161.4073 C.ar    1  UNL1        0.0590
     37 C         138.6464  141.0880  161.1025 C.ar    1  UNL1        0.0050
     38 C         137.6898  140.4212  162.0462 C.ar    1  UNL1        0.0002
     39 C         137.2524  141.1284  163.2947 C.ar    1  UNL1        0.0005
     40 C         137.7715  142.5023  163.5995 C.ar    1  UNL1        0.0063
     41 C         138.7281  143.1691  162.6557 C.ar    1  UNL1        0.0296
     42 S         139.2472  144.5430  162.9605 S.3     1  UNL1       -0.1126
     43 C         140.0390  144.7852  164.2114 C.3     1  UNL1        0.0742
@<TRIPOS>BOND
     1    17    18    1
     2    18     7    1
     3     7     8   ar
     4     8     9   ar
     5     9    10   ar
     6    10    11   ar
     7    11    12   ar
     8    12    13   ar
     9    13    14   ar
    10    14    15   ar
    11    15    16   ar
    12    16     2    1
    13     2     3   ar
    14     3     4   ar
    15     4     5   ar
    16     5     1    1
    17     1    28    1
    18    28    29    1
    19    29    30    1
    20    30    31    1
    21    31    32    1
    22    32    33   am
    23    33    34    2
    24    33    36    1
    25    36    37   ar
    26    37    38   ar
    27    38    39   ar
    28    39    40   ar
    29    40    41   ar
    30    41    42    1
    31    42    43    1
    32     1    19    1
    33    19    20   am
    34    20    21    2
    35    20    23    1
    36    23    24   ar
    37    24    25   ar
    38    25    26   ar
    39    26    27   ar
    40     5     6   ar
    41    16     7   ar
    42     6     2   ar
    43    14     9   ar
    44    41    36   ar
    45    27    23   ar
    46    32    35    1
    47    19    22    1
@<TRIPOS>MOLECULE
*****
 43 47 0 0 0
SMALL
GASTEIGER

@<TRIPOS>ATOM
      1 C         142.8871  139.6735  159.8118 C.3     1  UNL1        0.1505
      2 C         142.8579  140.8336  163.5157 C.ar    1  UNL1        0.2542
      3 N         144.3304  140.6913  163.2682 N.ar    1  UNL1       -0.1070
      4 N         144.5206  140.2393  161.8506 N.ar    1  UNL1       -0.1097
      5 C         143.1655  140.1024  161.2219 C.ar    1  UNL1        0.2440
      6 O         142.1379  140.4697  162.2511 O.2     1  UNL1       -0.4177
      7 C         140.7234  141.3476  164.9050 C.ar    1  UNL1        0.2295
      8 N         140.0831  141.7782  166.1912 N.ar    1  UNL1       -0.2115
      9 C         140.9369  142.1257  167.3746 C.ar    1  UNL1        0.0844
     10 C         140.2966  142.5564  168.6608 C.ar    1  UNL1        0.0192
     11 C         141.1505  142.9038  169.8441 C.ar    1  UNL1        0.0015
     12 C         142.6446  142.8206  169.7412 C.ar    1  UNL1        0.0001
     13 C         143.2849  142.3899  168.4549 C.ar    1  UNL1        0.0015
     14 C         142.4311  142.0425  167.2716 C.ar    1  UNL1        0.0181
     15 C         143.0714  141.6118  165.9853 C.ar    1  UNL1        0.0109
     16 C         142.2176  141.2643  164.8020 C.ar    1  UNL1        0.1082
     17 C         138.9505  139.8162  163.7817 C.3     1  UNL1        0.2542
     18 O         139.8696  141.0001  163.7216 O.3     1  UNL1       -0.4560
     19 N         143.9513  139.8072  158.7631 N.am    1  UNL1       -0.2942
     20 C         144.1112  141.0987  158.0172 C.2     1  UNL1        0.2538
     21 O         143.2069  142.2565  158.3200 O.2     1  UNL1       -0.2695
     22 H         144.5448  139.0473  158.5645 H       1  UNL1        0.1502
     23 C         145.1753  141.2324  156.9687 C.ar    1  UNL1        0.1033
     24 C         145.3826  140.3142  155.8008 C.ar    1  UNL1        0.1105
     25 N         146.5545  140.8221  155.0141 N.ar    1  UNL1       -0.2346
     26 C         147.0714  142.0541  155.6957 C.ar    1  UNL1        0.1347
     27 S         146.2190  142.3077  156.9038 S.2     1  UNL1       -0.0599
     28 C         141.5444  139.1109  159.4503 C.3     1  UNL1        0.0292
     29 C         140.5638  139.9457  158.6813 C.3     1  UNL1        0.0040
     30 C         139.1625  140.1150  159.1889 C.3     1  UNL1        0.0213
     31 C         138.8093  141.3029  160.0342 C.3     1  UNL1        0.0897
     32 N         139.8198  141.8747  160.9839 N.am    1  UNL1       -0.3009
     33 C         140.2035  143.3217  160.8888 C.2     1  UNL1        0.2463
     34 O         139.5768  144.1967  159.8441 O.2     1  UNL1       -0.2701
     35 H         140.2311  141.3003  161.6695 H       1  UNL1        0.1497
     36 C         141.2140  143.8935  161.8385 C.ar    1  UNL1        0.0590
     37 C         142.6773  143.8001  161.5223 C.ar    1  UNL1        0.0050
     38 C         143.6878  144.3720  162.4721 C.ar    1  UNL1        0.0002
     39 C         143.2350  145.0372  163.7379 C.ar    1  UNL1        0.0005
     40 C         141.7716  145.1305  164.0541 C.ar    1  UNL1        0.0063
     41 C         140.7611  144.5587  163.1043 C.ar    1  UNL1        0.0296
     42 S         139.2978  144.6520  163.4205 S.3     1  UNL1       -0.1126
     43 C         138.8474  144.8386  164.8391 C.3     1  UNL1        0.0742
@<TRIPOS>BOND
     1    17    18    1
     2    18     7    1
     3     7     8   ar
     4     8     9   ar
     5     9    10   ar
     6    10    11   ar
     7    11    12   ar
     8    12    13   ar
     9    13    14   ar
    10    14    15   ar
    11    15    16   ar
    12    16     2    1
    13     2     3   ar
    14     3     4   ar
    15     4     5   ar
    16     5     1    1
    17     1    28    1
    18    28    29    1
    19    29    30    1
    20    30    31    1
    21    31    32    1
    22    32    33   am
    23    33    34    2
    24    33    36    1
    25    36    37   ar
    26    37    38   ar
    27    38    39   ar
    28    39    40   ar
    29    40    41   ar
    30    41    42    1
    31    42    43    1
    32     1    19    1
    33    19    20   am
    34    20    21    2
    35    20    23    1
    36    23    24   ar
    37    24    25   ar
    38    25    26   ar
    39    26    27   ar
    40     5     6   ar
    41    16     7   ar
    42     6     2   ar
    43    14     9   ar
    44    41    36   ar
    45    27    23   ar
    46    32    35    1
    47    19    22    1
