@<TRIPOS>MOLECULE
*****
 30 32 0 0 0
SMALL
GASTEIGER

@<TRIPOS>ATOM
      1 C         141.7960  143.3150  161.4700 C.ar    1  UNL1        0.1835
      2 N         141.3900  144.7522  161.3304 N.ar    1  UNL1       -0.1885
      3 C         140.5527  145.4017  162.3921 C.ar    1  UNL1        0.2596
      4 O         140.1467  146.8389  162.2524 O.3     1  UNL1       -0.4898
      5 C         140.1214  144.6138  163.5935 C.ar    1  UNL1        0.2098
      6 O         139.2841  145.2632  164.6552 O.3     1  UNL1       -0.5007
      7 C         140.5274  143.1765  163.7331 C.ar    1  UNL1        0.1743
      8 N         141.3647  142.5272  162.6714 N.ar    1  UNL1       -0.2173
      9 H         140.4161  147.3310  161.5020 H       1  UNL1        0.2938
     10 H         139.0305  146.1610  164.5679 H       1  UNL1        0.2924
     11 C         143.6898  140.5324  159.3676 C.ar    1  UNL1        0.1419
     12 C         144.3078  141.3667  158.2850 C.ar    1  UNL1        0.0576
     13 C         144.0886  142.8504  158.2641 C.ar    1  UNL1        0.1021
     14 N         143.2513  143.4999  159.3258 N.ar    1  UNL1       -0.2405
     15 C         142.6333  142.6656  160.4083 C.ar    1  UNL1        0.1201
     16 C         142.8526  141.1818  160.4292 C.ar    1  UNL1        0.0591
     17 C         143.9035  138.3080  160.6928 C.3     1  UNL1        0.2525
     18 O         143.9091  139.0487  159.3884 O.3     1  UNL1       -0.4713
     19 C         140.0962  142.3887  164.9345 C.2     1  UNL1        0.2668
     20 O         139.9066  143.0766  166.2540 O.2     1  UNL1       -0.2684
     21 N         139.8545  140.9130  164.8165 N.am    1  UNL1       -0.3012
     22 H         139.9789  140.4616  163.9505 H       1  UNL1        0.1497
     23 C         139.4232  140.1252  166.0178 C.3     1  UNL1        0.0719
     24 C         138.0442  139.5376  166.0739 C.3     1  UNL1        0.0213
     25 C         140.3709  139.9249  167.1631 C.3     1  UNL1        0.0180
     26 C         141.8038  139.5690  166.8975 C.3     1  UNL1        0.0016
     27 C         142.7515  139.3687  168.0428 C.3     1  UNL1        0.0001
     28 C         142.2664  139.5242  169.4537 C.3     1  UNL1        0.0000
     29 C         140.8337  139.8800  169.7193 C.3     1  UNL1        0.0001
     30 C         139.8859  140.0804  168.5740 C.3     1  UNL1        0.0016
@<TRIPOS>BOND
     1    17    18    1
     2    18    11    1
     3    11    12   ar
     4    12    13   ar
     5    13    14   ar
     6    14    15   ar
     7    15     1    1
     8     1     2   ar
     9     2     3   ar
    10     3     4    1
    11     3     5   ar
    12     5     6    1
    13     5     7   ar
    14     7    19    1
    15    19    20    2
    16    19    21   am
    17    21    23    1
    18    23    24    1
    19    23    25    1
    20    25    26    1
    21    26    27    1
    22    27    28    1
    23    28    29    1
    24    29    30    1
    25     7     8   ar
    26    15    16   ar
    27    16    11   ar
    28     8     1   ar
    29    30    25    1
    30     4     9    1
    31     6    10    1
    32    21    22    1
@<TRIPOS>MOLECULE
*****
 30 32 0 0 0
SMALL
GASTEIGER

@<TRIPOS>ATOM
      1 C         140.8035  143.9407  160.5726 C.ar    1  UNL1        0.1835
      2 N         142.0866  144.6430  160.9047 N.ar    1  UNL1       -0.1885
      3 C         142.6562  144.5495  162.2893 C.ar    1  UNL1        0.2596
      4 O         143.9393  145.2518  162.6214 O.3     1  UNL1       -0.4898
      5 C         141.9426  143.7538  163.3417 C.ar    1  UNL1        0.2098
      6 O         142.5121  143.6603  164.7262 O.3     1  UNL1       -0.5007
      7 C         140.6593  143.0515  163.0095 C.ar    1  UNL1        0.1743
      8 N         140.0898  143.1450  161.6250 N.ar    1  UNL1       -0.2173
      9 H         144.3851  145.7489  161.9640 H       1  UNL1        0.2938
     10 H         143.3136  144.0990  164.9337 H       1  UNL1        0.2924
     11 C         139.8918  145.3611  156.9808 C.ar    1  UNL1        0.1419
     12 C         139.0949  144.2212  156.4191 C.ar    1  UNL1        0.0576
     13 C         138.8675  142.9878  157.2419 C.ar    1  UNL1        0.1021
     14 N         139.4370  142.8943  158.6264 N.ar    1  UNL1       -0.2405
     15 C         140.2339  144.0342  159.1881 C.ar    1  UNL1        0.1201
     16 C         140.4613  145.2676  158.3653 C.ar    1  UNL1        0.0591
     17 C         139.0146  147.5943  155.9842 C.3     1  UNL1        0.2525
     18 O         140.1191  146.5945  156.1580 O.3     1  UNL1       -0.4713
     19 C         139.9457  142.2558  164.0619 C.2     1  UNL1        0.2668
     20 O         138.4699  142.4327  164.2639 O.2     1  UNL1       -0.2684
     21 N         140.7078  141.2832  164.9123 N.am    1  UNL1       -0.3012
     22 H         141.6764  141.1671  164.7797 H       1  UNL1        0.1497
     23 C         139.9942  140.4874  165.9647 C.3     1  UNL1        0.0719
     24 C         139.3277  139.1931  165.6031 C.3     1  UNL1        0.0213
     25 C         139.9469  140.9860  167.3786 C.3     1  UNL1        0.0180
     26 C         139.3391  140.1350  168.4540 C.3     1  UNL1        0.0016
     27 C         139.2918  140.6335  169.8679 C.3     1  UNL1        0.0001
     28 C         139.8524  141.9830  170.2065 C.3     1  UNL1        0.0000
     29 C         140.4602  142.8340  169.1312 C.3     1  UNL1        0.0001
     30 C         140.5075  142.3355  167.7171 C.3     1  UNL1        0.0016
@<TRIPOS>BOND
     1    17    18    1
     2    18    11    1
     3    11    12   ar
     4    12    13   ar
     5    13    14   ar
     6    14    15   ar
     7    15     1    1
     8     1     2   ar
     9     2     3   ar
    10     3     4    1
    11     3     5   ar
    12     5     6    1
    13     5     7   ar
    14     7    19    1
    15    19    20    2
    16    19    21   am
    17    21    23    1
    18    23    24    1
    19    23    25    1
    20    25    26    1
    21    26    27    1
    22    27    28    1
    23    28    29    1
    24    29    30    1
    25     7     8   ar
    26    15    16   ar
    27    16    11   ar
    28     8     1   ar
    29    30    25    1
    30     4     9    1
    31     6    10    1
    32    21    22    1
@<TRIPOS>MOLECULE
*****
 30 32 0 0 0
SMALL
GASTEIGER

@<TRIPOS>ATOM
      1 C         142.3115  143.5042  162.1541 C.ar    1  UNL1        0.1835
      2 N         141.3154  144.0889  163.1111 N.ar    1  UNL1       -0.1885
      3 C         140.3165  145.0991  162.6298 C.ar    1  UNL1        0.2596
      4 O         139.3204  145.6838  163.5868 O.3     1  UNL1       -0.4898
      5 C         140.3138  145.5247  161.1914 C.ar    1  UNL1        0.2098
      6 O         139.3150  146.5350  160.7101 O.3     1  UNL1       -0.5007
      7 C         141.3100  144.9400  160.2344 C.ar    1  UNL1        0.1743
      8 N         142.3088  143.9298  160.7157 N.ar    1  UNL1       -0.2173
      9 H         139.3221  145.4179  164.4853 H       1  UNL1        0.2938
     10 H         138.6927  146.9002  161.3079 H       1  UNL1        0.2924
     11 C         144.0642  140.0209  162.8924 C.ar    1  UNL1        0.1419
     12 C         145.3081  140.4734  163.5980 C.ar    1  UNL1        0.0576
     13 C         145.5531  141.9362  163.8224 C.ar    1  UNL1        0.1021
     14 N         144.5543  142.9464  163.3411 N.ar    1  UNL1       -0.2405
     15 C         143.3104  142.4939  162.6354 C.ar    1  UNL1        0.1201
     16 C         143.0654  141.0312  162.4111 C.ar    1  UNL1        0.0591
     17 C         143.1596  138.0935  161.4035 C.3     1  UNL1        0.2525
     18 O         143.8191  138.5582  162.6681 O.3     1  UNL1       -0.4713
     19 C         141.3073  145.3656  158.7960 C.2     1  UNL1        0.2668
     20 O         142.5314  145.9925  158.1971 O.2     1  UNL1       -0.2684
     21 N         140.0806  145.1644  157.9566 N.am    1  UNL1       -0.3012
     22 H         139.2772  144.7529  158.3498 H       1  UNL1        0.1497
     23 C         140.0779  145.5899  156.5183 C.3     1  UNL1        0.0719
     24 C         140.5039  144.6266  155.4503 C.3     1  UNL1        0.0213
     25 C         139.6492  146.9788  156.1479 C.3     1  UNL1        0.0180
     26 C         138.9319  147.8346  157.1495 C.3     1  UNL1        0.0016
     27 C         138.5032  149.2234  156.7792 C.3     1  UNL1        0.0001
     28 C         138.7917  149.7566  155.4071 C.3     1  UNL1        0.0000
     29 C         139.5090  148.9009  154.4055 C.3     1  UNL1        0.0001
     30 C         139.9377  147.5120  154.7759 C.3     1  UNL1        0.0016
@<TRIPOS>BOND
     1    17    18    1
     2    18    11    1
     3    11    12   ar
     4    12    13   ar
     5    13    14   ar
     6    14    15   ar
     7    15     1    1
     8     1     2   ar
     9     2     3   ar
    10     3     4    1
    11     3     5   ar
    12     5     6    1
    13     5     7   ar
    14     7    19    1
    15    19    20    2
    16    19    21   am
    17    21    23    1
    18    23    24    1
    19    23    25    1
    20    25    26    1
    21    26    27    1
    22    27    28    1
    23    28    29    1
    24    29    30    1
    25     7     8   ar
    26    15    16   ar
    27    16    11   ar
    28     8     1   ar
    29    30    25    1
    30     4     9    1
    31     6    10    1
    32    21    22    1
@<TRIPOS>MOLECULE
*****
 30 32 0 0 0
SMALL
GASTEIGER

@<TRIPOS>ATOM
      1 C         139.2140  143.6441  157.8969 C.ar    1  UNL1        0.1835
      2 N         140.4048  144.4300  157.4339 N.ar    1  UNL1       -0.1885
      3 C         141.4186  144.9115  158.4291 C.ar    1  UNL1        0.2596
      4 O         142.6094  145.6974  157.9661 O.3     1  UNL1       -0.4898
      5 C         141.2417  144.6071  159.8871 C.ar    1  UNL1        0.2098
      6 O         142.2555  145.0885  160.8823 O.3     1  UNL1       -0.5007
      7 C         140.0508  143.8211  160.3501 C.ar    1  UNL1        0.1743
      8 N         139.0370  143.3397  159.3549 N.ar    1  UNL1       -0.2173
      9 H         142.7200  145.8875  157.0553 H       1  UNL1        0.2938
     10 H         142.9994  145.5794  160.5931 H       1  UNL1        0.2924
     11 C         136.4055  141.4292  156.1773 C.ar    1  UNL1        0.1419
     12 C         136.1724  142.1996  154.9116 C.ar    1  UNL1        0.0576
     13 C         136.9531  143.4515  154.6409 C.ar    1  UNL1        0.1021
     14 N         137.9669  143.9330  155.6360 N.ar    1  UNL1       -0.2405
     15 C         138.2001  143.1626  156.9017 C.ar    1  UNL1        0.1201
     16 C         137.4194  141.9107  157.1723 C.ar    1  UNL1        0.0591
     17 C         134.1256  140.2055  156.4104 C.3     1  UNL1        0.2525
     18 O         135.6248  140.1773  156.4479 O.3     1  UNL1       -0.4713
     19 C         139.8738  143.5167  161.8081 C.2     1  UNL1        0.2668
     20 O         139.5055  142.1299  162.2454 O.2     1  UNL1       -0.2684
     21 N         140.0651  144.5990  162.8289 N.am    1  UNL1       -0.3012
     22 H         140.3068  145.5092  162.5419 H       1  UNL1        0.1497
     23 C         139.8881  144.2945  164.2870 C.3     1  UNL1        0.0719
     24 C         138.6214  144.6886  164.9871 C.3     1  UNL1        0.0213
     25 C         140.9779  143.5961  165.0450 C.3     1  UNL1        0.0180
     26 C         140.6575  142.8621  166.3134 C.3     1  UNL1        0.0016
     27 C         141.7473  142.1636  167.0714 C.3     1  UNL1        0.0001
     28 C         143.1573  142.1991  166.5610 C.3     1  UNL1        0.0000
     29 C         143.4777  142.9331  165.2927 C.3     1  UNL1        0.0001
     30 C         142.3879  143.6316  164.5347 C.3     1  UNL1        0.0016
@<TRIPOS>BOND
     1    17    18    1
     2    18    11    1
     3    11    12   ar
     4    12    13   ar
     5    13    14   ar
     6    14    15   ar
     7    15     1    1
     8     1     2   ar
     9     2     3   ar
    10     3     4    1
    11     3     5   ar
    12     5     6    1
    13     5     7   ar
    14     7    19    1
    15    19    20    2
    16    19    21   am
    17    21    23    1
    18    23    24    1
    19    23    25    1
    20    25    26    1
    21    26    27    1
    22    27    28    1
    23    28    29    1
    24    29    30    1
    25     7     8   ar
    26    15    16   ar
    27    16    11   ar
    28     8     1   ar
    29    30    25    1
    30     4     9    1
    31     6    10    1
    32    21    22    1
@<TRIPOS>MOLECULE
*****
 30 32 0 0 0
SMALL
GASTEIGER

@<TRIPOS>ATOM
      1 C         139.2126  143.6300  157.8846 C.ar    1  UNL1        0.1835
      2 N         140.4125  144.3880  157.3992 N.ar    1  UNL1       -0.1885
      3 C         141.4377  144.8769  158.3791 C.ar    1  UNL1        0.2596
      4 O         142.6375  145.6349  157.8937 O.3     1  UNL1       -0.4898
      5 C         141.2629  144.6076  159.8444 C.ar    1  UNL1        0.2098
      6 O         142.2880  145.0964  160.8243 O.3     1  UNL1       -0.5007
      7 C         140.0630  143.8495  160.3297 C.ar    1  UNL1        0.1743
      8 N         139.0378  143.3607  159.3499 N.ar    1  UNL1       -0.2173
      9 H         142.7467  145.8031  156.9785 H       1  UNL1        0.2938
     10 H         143.0376  145.5699  160.5211 H       1  UNL1        0.2924
     11 C         136.3817  141.4049  156.2158 C.ar    1  UNL1        0.1419
     12 C         136.1371  142.1635  154.9451 C.ar    1  UNL1        0.0576
     13 C         136.9176  143.4110  154.6543 C.ar    1  UNL1        0.1021
     14 N         137.9428  143.8998  155.6341 N.ar    1  UNL1       -0.2405
     15 C         138.1874  143.1412  156.9047 C.ar    1  UNL1        0.1201
     16 C         137.4069  141.8937  157.1956 C.ar    1  UNL1        0.0591
     17 C         134.1037  140.1730  156.4226 C.3     1  UNL1        0.2525
     18 O         135.6012  140.1574  156.5066 O.3     1  UNL1       -0.4713
     19 C         139.8882  143.5803  161.7950 C.2     1  UNL1        0.2668
     20 O         141.0890  143.4904  162.6895 O.2     1  UNL1       -0.2684
     21 N         138.5127  143.4009  162.3658 N.am    1  UNL1       -0.3012
     22 H         137.7246  143.4599  161.7787 H       1  UNL1        0.1497
     23 C         138.3380  143.1316  163.8310 C.3     1  UNL1        0.0719
     24 C         137.9020  144.2346  164.7495 C.3     1  UNL1        0.0213
     25 C         138.5992  141.7595  164.3778 C.3     1  UNL1        0.0180
     26 C         139.3115  141.5973  165.6880 C.3     1  UNL1        0.0016
     27 C         139.5727  140.2252  166.2348 C.3     1  UNL1        0.0001
     28 C         139.1216  139.0152  165.4715 C.3     1  UNL1        0.0000
     29 C         138.4093  139.1774  164.1614 C.3     1  UNL1        0.0001
     30 C         138.1481  140.5496  163.6146 C.3     1  UNL1        0.0016
@<TRIPOS>BOND
     1    17    18    1
     2    18    11    1
     3    11    12   ar
     4    12    13   ar
     5    13    14   ar
     6    14    15   ar
     7    15     1    1
     8     1     2   ar
     9     2     3   ar
    10     3     4    1
    11     3     5   ar
    12     5     6    1
    13     5     7   ar
    14     7    19    1
    15    19    20    2
    16    19    21   am
    17    21    23    1
    18    23    24    1
    19    23    25    1
    20    25    26    1
    21    26    27    1
    22    27    28    1
    23    28    29    1
    24    29    30    1
    25     7     8   ar
    26    15    16   ar
    27    16    11   ar
    28     8     1   ar
    29    30    25    1
    30     4     9    1
    31     6    10    1
    32    21    22    1
@<TRIPOS>MOLECULE
*****
 30 32 0 0 0
SMALL
GASTEIGER

@<TRIPOS>ATOM
      1 C         143.6091  140.4502  160.9279 C.ar    1  UNL1        0.1835
      2 N         144.9291  140.8968  161.4829 N.ar    1  UNL1       -0.1885
      3 C         145.0269  141.3562  162.9075 C.ar    1  UNL1        0.2596
      4 O         146.3469  141.8028  163.4626 O.3     1  UNL1       -0.4898
      5 C         143.8047  141.3690  163.7770 C.ar    1  UNL1        0.2098
      6 O         143.9024  141.8284  165.2016 O.3     1  UNL1       -0.5007
      7 C         142.4846  140.9224  163.2219 C.ar    1  UNL1        0.1743
      8 N         142.3868  140.4630  161.7974 N.ar    1  UNL1       -0.2173
      9 H         147.1103  141.7948  162.9194 H       1  UNL1        0.2938
     10 H         144.7270  142.1074  165.5483 H       1  UNL1        0.2924
     11 C         142.7435  138.2288  157.7551 C.ar    1  UNL1        0.1419
     12 C         143.3156  139.0718  156.6543 C.ar    1  UNL1        0.0576
     13 C         143.9855  140.3743  156.9779 C.ar    1  UNL1        0.1021
     14 N         144.0833  140.8338  158.4024 N.ar    1  UNL1       -0.2405
     15 C         143.5113  139.9907  159.5033 C.ar    1  UNL1        0.1201
     16 C         142.8414  138.6882  159.1796 C.ar    1  UNL1        0.0591
     17 C         141.2048  136.8119  156.2141 C.3     1  UNL1        0.2525
     18 O         142.0736  136.9263  157.4315 O.3     1  UNL1       -0.4713
     19 C         141.2624  140.9352  164.0914 C.2     1  UNL1        0.2668
     20 O         140.1083  141.8305  163.7498 O.2     1  UNL1       -0.2684
     21 N         141.1942  140.0528  165.3024 N.am    1  UNL1       -0.3012
     22 H         141.9516  139.4652  165.5266 H       1  UNL1        0.1497
     23 C         139.9720  140.0656  166.1719 C.3     1  UNL1        0.0719
     24 C         138.7452  139.3111  165.7524 C.3     1  UNL1        0.0213
     25 C         139.9765  140.8328  167.4608 C.3     1  UNL1        0.0180
     26 C         140.5218  142.2296  167.5003 C.3     1  UNL1        0.0016
     27 C         140.5264  142.9968  168.7892 C.3     1  UNL1        0.0001
     28 C         139.9855  142.3673  170.0387 C.3     1  UNL1        0.0000
     29 C         139.4402  140.9705  169.9992 C.3     1  UNL1        0.0001
     30 C         139.4356  140.2032  168.7103 C.3     1  UNL1        0.0016
@<TRIPOS>BOND
     1    17    18    1
     2    18    11    1
     3    11    12   ar
     4    12    13   ar
     5    13    14   ar
     6    14    15   ar
     7    15     1    1
     8     1     2   ar
     9     2     3   ar
    10     3     4    1
    11     3     5   ar
    12     5     6    1
    13     5     7   ar
    14     7    19    1
    15    19    20    2
    16    19    21   am
    17    21    23    1
    18    23    24    1
    19    23    25    1
    20    25    26    1
    21    26    27    1
    22    27    28    1
    23    28    29    1
    24    29    30    1
    25     7     8   ar
    26    15    16   ar
    27    16    11   ar
    28     8     1   ar
    29    30    25    1
    30     4     9    1
    31     6    10    1
    32    21    22    1
@<TRIPOS>MOLECULE
*****
 30 32 0 0 0
SMALL
GASTEIGER

@<TRIPOS>ATOM
      1 C         139.2672  143.2586  160.5279 C.ar    1  UNL1        0.1835
      2 N         139.5844  144.7140  160.7039 N.ar    1  UNL1       -0.1885
      3 C         139.8488  145.2636  162.0744 C.ar    1  UNL1        0.2596
      4 O         140.1661  146.7190  162.2504 O.3     1  UNL1       -0.4898
      5 C         139.7960  144.3577  163.2688 C.ar    1  UNL1        0.2098
      6 O         140.0604  144.9072  164.6392 O.3     1  UNL1       -0.5007
      7 C         139.4787  142.9022  163.0926 C.ar    1  UNL1        0.1743
      8 N         139.2143  142.3527  161.7222 N.ar    1  UNL1       -0.2173
      9 H         140.1991  147.2849  161.5044 H       1  UNL1        0.2938
     10 H         140.2585  145.8164  164.7492 H       1  UNL1        0.2924
     11 C         139.1460  142.9418  156.5737 C.ar    1  UNL1        0.1419
     12 C         138.4740  141.6100  156.4165 C.ar    1  UNL1        0.0576
     13 C         138.0665  140.8277  157.6298 C.ar    1  UNL1        0.1021
     14 N         138.3308  141.3772  159.0002 N.ar    1  UNL1       -0.2405
     15 C         139.0028  142.7090  159.1574 C.ar    1  UNL1        0.1201
     16 C         139.4103  143.4913  157.9442 C.ar    1  UNL1        0.0591
     17 C         139.6762  145.2171  155.4371 C.3     1  UNL1        0.2525
     18 O         139.5535  143.7241  155.3605 O.3     1  UNL1       -0.4713
     19 C         139.4259  141.9962  164.2870 C.2     1  UNL1        0.2668
     20 O         138.1474  141.2961  164.6413 O.2     1  UNL1       -0.2684
     21 N         140.6514  141.7905  165.1271 N.am    1  UNL1       -0.3012
     22 H         141.4904  142.2500  164.8945 H       1  UNL1        0.1497
     23 C         140.5986  140.8845  166.3214 C.3     1  UNL1        0.0719
     24 C         140.8226  139.4106  166.1553 C.3     1  UNL1        0.0213
     25 C         140.3216  141.4524  167.6818 C.3     1  UNL1        0.0180
     26 C         139.6359  140.6137  168.7194 C.3     1  UNL1        0.0016
     27 C         139.3590  141.1815  170.0798 C.3     1  UNL1        0.0001
     28 C         139.7678  142.5882  170.4028 C.3     1  UNL1        0.0000
     29 C         140.4534  143.4269  169.3653 C.3     1  UNL1        0.0001
     30 C         140.7304  142.8590  168.0048 C.3     1  UNL1        0.0016
@<TRIPOS>BOND
     1    17    18    1
     2    18    11    1
     3    11    12   ar
     4    12    13   ar
     5    13    14   ar
     6    14    15   ar
     7    15     1    1
     8     1     2   ar
     9     2     3   ar
    10     3     4    1
    11     3     5   ar
    12     5     6    1
    13     5     7   ar
    14     7    19    1
    15    19    20    2
    16    19    21   am
    17    21    23    1
    18    23    24    1
    19    23    25    1
    20    25    26    1
    21    26    27    1
    22    27    28    1
    23    28    29    1
    24    29    30    1
    25     7     8   ar
    26    15    16   ar
    27    16    11   ar
    28     8     1   ar
    29    30    25    1
    30     4     9    1
    31     6    10    1
    32    21    22    1
@<TRIPOS>MOLECULE
*****
 30 32 0 0 0
SMALL
GASTEIGER

@<TRIPOS>ATOM
      1 C         141.6542  143.2301  161.2874 C.ar    1  UNL1        0.1835
      2 N         141.3190  144.6891  161.1934 N.ar    1  UNL1       -0.1885
      3 C         140.5566  145.3563  162.2996 C.ar    1  UNL1        0.2596
      4 O         140.2214  146.8153  162.2056 O.3     1  UNL1       -0.4898
      5 C         140.1294  144.5644  163.4998 C.ar    1  UNL1        0.2098
      6 O         139.3671  145.2316  164.6060 O.3     1  UNL1       -0.5007
      7 C         140.4647  143.1053  163.5938 C.ar    1  UNL1        0.1743
      8 N         141.2270  142.4382  162.4876 N.ar    1  UNL1       -0.2173
      9 H         140.4882  147.3100  161.4559 H       1  UNL1        0.2938
     10 H         139.1577  146.1430  164.5473 H       1  UNL1        0.2924
     11 C         143.3268  142.5790  157.7478 C.ar    1  UNL1        0.1419
     12 C         143.9412  141.2286  157.9688 C.ar    1  UNL1        0.0576
     13 C         143.7933  140.5453  159.2959 C.ar    1  UNL1        0.1021
     14 N         143.0310  141.2125  160.4021 N.ar    1  UNL1       -0.2405
     15 C         142.4166  142.5629  160.1812 C.ar    1  UNL1        0.1201
     16 C         142.5645  143.2461  158.8540 C.ar    1  UNL1        0.0591
     17 C         144.2560  142.6052  155.3218 C.3     1  UNL1        0.2525
     18 O         143.4747  143.2623  156.4207 O.3     1  UNL1       -0.4713
     19 C         140.0376  142.3135  164.7940 C.2     1  UNL1        0.2668
     20 O         139.7755  143.0090  166.0970 O.2     1  UNL1       -0.2684
     21 N         139.8725  140.8262  164.6913 N.am    1  UNL1       -0.3012
     22 H         140.0445  140.3697  163.8361 H       1  UNL1        0.1497
     23 C         139.4453  140.0343  165.8915 C.3     1  UNL1        0.0719
     24 C         138.0862  139.4005  165.9270 C.3     1  UNL1        0.0213
     25 C         140.3773  139.8762  167.0562 C.3     1  UNL1        0.0180
     26 C         139.8658  140.0523  168.4553 C.3     1  UNL1        0.0016
     27 C         140.7977  139.8941  169.6199 C.3     1  UNL1        0.0001
     28 C         142.2411  139.5599  169.3856 C.3     1  UNL1        0.0000
     29 C         142.7526  139.3838  167.9865 C.3     1  UNL1        0.0001
     30 C         141.8206  139.5419  166.8218 C.3     1  UNL1        0.0016
@<TRIPOS>BOND
     1    17    18    1
     2    18    11    1
     3    11    12   ar
     4    12    13   ar
     5    13    14   ar
     6    14    15   ar
     7    15     1    1
     8     1     2   ar
     9     2     3   ar
    10     3     4    1
    11     3     5   ar
    12     5     6    1
    13     5     7   ar
    14     7    19    1
    15    19    20    2
    16    19    21   am
    17    21    23    1
    18    23    24    1
    19    23    25    1
    20    25    26    1
    21    26    27    1
    22    27    28    1
    23    28    29    1
    24    29    30    1
    25     7     8   ar
    26    15    16   ar
    27    16    11   ar
    28     8     1   ar
    29    30    25    1
    30     4     9    1
    31     6    10    1
    32    21    22    1
@<TRIPOS>MOLECULE
*****
 30 32 0 0 0
SMALL
GASTEIGER

@<TRIPOS>ATOM
      1 C         142.0254  143.6478  160.7066 C.ar    1  UNL1        0.1835
      2 N         141.3323  144.9780  160.7182 N.ar    1  UNL1       -0.1885
      3 C         140.6889  145.4774  161.9779 C.ar    1  UNL1        0.2596
      4 O         139.9957  146.8076  161.9896 O.3     1  UNL1       -0.4898
      5 C         140.7386  144.6466  163.2258 C.ar    1  UNL1        0.2098
      6 O         140.0952  145.1460  164.4854 O.3     1  UNL1       -0.5007
      7 C         141.4318  143.3164  163.2141 C.ar    1  UNL1        0.1743
      8 N         142.0752  142.8170  161.9545 N.ar    1  UNL1       -0.2173
      9 H         139.9647  147.3266  161.2101 H       1  UNL1        0.2938
     10 H         139.6622  145.9769  164.4927 H       1  UNL1        0.2924
     11 C         143.1258  143.3989  156.9016 C.ar    1  UNL1        0.1419
     12 C         143.9556  142.1497  156.9277 C.ar    1  UNL1        0.0576
     13 C         144.1421  141.3998  158.2134 C.ar    1  UNL1        0.1021
     14 N         143.4987  141.8992  159.4730 N.ar    1  UNL1       -0.2405
     15 C         142.6689  143.1484  159.4469 C.ar    1  UNL1        0.1201
     16 C         142.4824  143.8983  158.1612 C.ar    1  UNL1        0.0591
     17 C         141.9495  145.2733  155.5404 C.3     1  UNL1        0.2525
     18 O         142.9393  144.1488  155.6160 O.3     1  UNL1       -0.4713
     19 C         141.4815  142.4856  164.4620 C.2     1  UNL1        0.2668
     20 O         142.6962  141.6591  164.7649 O.2     1  UNL1       -0.2684
     21 N         140.3167  142.4812  165.4070 N.am    1  UNL1       -0.3012
     22 H         139.5195  143.0237  165.2082 H       1  UNL1        0.1497
     23 C         140.3665  141.6504  166.6549 C.3     1  UNL1        0.0719
     24 C         139.6926  140.3108  166.6914 C.3     1  UNL1        0.0213
     25 C         141.0900  142.1592  167.8663 C.3     1  UNL1        0.0180
     26 C         142.4933  141.7090  168.1460 C.3     1  UNL1        0.0016
     27 C         143.2169  142.2178  169.3574 C.3     1  UNL1        0.0001
     28 C         142.5372  143.1769  170.2892 C.3     1  UNL1        0.0000
     29 C         141.1340  143.6271  170.0096 C.3     1  UNL1        0.0001
     30 C         140.4103  143.1183  168.7982 C.3     1  UNL1        0.0016
@<TRIPOS>BOND
     1    17    18    1
     2    18    11    1
     3    11    12   ar
     4    12    13   ar
     5    13    14   ar
     6    14    15   ar
     7    15     1    1
     8     1     2   ar
     9     2     3   ar
    10     3     4    1
    11     3     5   ar
    12     5     6    1
    13     5     7   ar
    14     7    19    1
    15    19    20    2
    16    19    21   am
    17    21    23    1
    18    23    24    1
    19    23    25    1
    20    25    26    1
    21    26    27    1
    22    27    28    1
    23    28    29    1
    24    29    30    1
    25     7     8   ar
    26    15    16   ar
    27    16    11   ar
    28     8     1   ar
    29    30    25    1
    30     4     9    1
    31     6    10    1
    32    21    22    1
