@<TRIPOS>MOLECULE
*****
 34 37 0 0 0
SMALL
GASTEIGER

@<TRIPOS>ATOM
      1 C         139.3160  139.4093  164.7823 C.ar    1  UNL1        0.1224
      2 N         140.6008  139.2729  165.5443 N.ar    1  UNL1       -0.2325
      3 C         141.9107  139.2787  164.8133 C.ar    1  UNL1        0.0835
      4 C         143.1955  139.1422  165.5753 C.ar    1  UNL1        0.0000
      5 C         144.5052  139.1480  164.8443 C.ar    1  UNL1       -0.0024
      6 C         144.5302  139.2903  163.3513 C.ar    1  UNL1       -0.0001
      7 C         143.2454  139.4267  162.5893 C.ar    1  UNL1        0.0062
      8 C         141.9356  139.4209  163.3203 C.ar    1  UNL1        0.0735
      9 C         140.6508  139.5574  162.5582 C.ar    1  UNL1        0.2631
     10 O         140.6758  139.6997  161.0652 O.2     1  UNL1       -0.2669
     11 N         139.3411  139.5516  163.2892 N.ar    1  UNL1       -0.2837
     12 C         137.8983  138.7387  166.8536 C.3     1  UNL1        0.0084
     13 C         138.0062  139.4035  165.5133 C.3     1  UNL1        0.0640
     14 C         143.1704  138.9999  167.0683 C.3     1  UNL1        0.0541
     15 C         142.4679  140.0255  167.9078 C.ar    1  UNL1       -0.0177
     16 C         142.6596  141.4859  167.6241 C.ar    1  UNL1       -0.0038
     17 C         141.9571  142.5115  168.4636 C.ar    1  UNL1        0.0043
     18 C         141.0629  142.0767  169.5866 C.ar    1  UNL1        0.0553
     19 C         140.8711  140.6163  169.8703 C.ar    1  UNL1        0.0043
     20 C         141.5737  139.5907  169.0309 C.ar    1  UNL1       -0.0038
     21 C         140.3604  143.1023  170.4260 C.2     1  UNL1        0.2677
     22 O         139.7739  142.7133  171.7508 O.2     1  UNL1       -0.2681
     23 N         140.2443  144.5169  169.9408 N.am    1  UNL1       -0.1934
     24 O         139.5418  145.5425  170.7802 O.3     1  UNL1       -0.2949
     25 H         140.6292  144.7722  169.0714 H       1  UNL1        0.1825
     26 H         139.2248  145.1287  171.5983 H       1  UNL1        0.2414
     27 C         138.0563  139.6881  162.5272 C.3     1  UNL1        0.1148
     28 C         137.6655  141.0151  161.9474 C.3     1  UNL1        0.0510
     29 C         138.1066  142.2842  162.6144 C.ar    1  UNL1       -0.0202
     30 C         137.5423  142.6643  163.9511 C.ar    1  UNL1       -0.0042
     31 C         137.9835  143.9334  164.6181 C.ar    1  UNL1       -0.0003
     32 C         138.9890  144.8223  163.9483 C.ar    1  UNL1       -0.0000
     33 C         139.5534  144.4422  162.6115 C.ar    1  UNL1       -0.0003
     34 C         139.1122  143.1731  161.9446 C.ar    1  UNL1       -0.0042
@<TRIPOS>BOND
     1    12    13    1
     2    13     1    1
     3     1     2   ar
     4     2     3   ar
     5     3     4   ar
     6     4    14    1
     7    14    15    1
     8    15    16   ar
     9    16    17   ar
    10    17    18   ar
    11    18    21    1
    12    21    22    2
    13    21    23   am
    14    23    24    1
    15    18    19   ar
    16    19    20   ar
    17     4     5   ar
    18     5     6   ar
    19     6     7   ar
    20     7     8   ar
    21     8     9   ar
    22     9    10    2
    23     9    11   ar
    24    11    27    1
    25    27    28    1
    26    28    29    1
    27    29    30   ar
    28    30    31   ar
    29    31    32   ar
    30    32    33   ar
    31    33    34   ar
    32    11     1   ar
    33    34    29   ar
    34     8     3   ar
    35    20    15   ar
    36    23    25    1
    37    24    26    1
@<TRIPOS>MOLECULE
*****
 34 37 0 0 0
SMALL
GASTEIGER

@<TRIPOS>ATOM
      1 C         138.1208  142.5534  164.1161 C.ar    1  UNL1        0.1224
      2 N         138.1812  141.4301  165.1083 N.ar    1  UNL1       -0.2325
      3 C         138.4869  140.0363  164.6456 C.ar    1  UNL1        0.0835
      4 C         138.5473  138.9130  165.6379 C.ar    1  UNL1        0.0000
      5 C         138.8530  137.5193  165.1753 C.ar    1  UNL1       -0.0024
      6 C         139.0984  137.2489  163.7204 C.ar    1  UNL1       -0.0001
      7 C         139.0380  138.3722  162.7282 C.ar    1  UNL1        0.0062
      8 C         138.7323  139.7659  163.1908 C.ar    1  UNL1        0.0735
      9 C         138.6719  140.8892  162.1985 C.ar    1  UNL1        0.2631
     10 O         138.9172  140.6188  160.7437 O.2     1  UNL1       -0.2669
     11 N         138.3662  142.2829  162.6612 N.ar    1  UNL1       -0.2837
     12 C         138.7954  144.6821  165.4440 C.3     1  UNL1        0.0084
     13 C         137.8151  143.9471  164.5787 C.3     1  UNL1        0.0640
     14 C         138.3020  139.1835  167.0928 C.3     1  UNL1        0.0541
     15 C         139.3289  139.9180  167.9027 C.ar    1  UNL1       -0.0177
     16 C         139.0268  140.3110  169.3183 C.ar    1  UNL1       -0.0038
     17 C         140.0537  141.0456  170.1282 C.ar    1  UNL1        0.0043
     18 C         141.3827  141.3871  169.5224 C.ar    1  UNL1        0.0553
     19 C         141.6849  140.9940  168.1066 C.ar    1  UNL1        0.0043
     20 C         140.6580  140.2595  167.2968 C.ar    1  UNL1       -0.0038
     21 C         142.4096  142.1216  170.3323 C.2     1  UNL1        0.2677
     22 O         142.1422  142.4374  171.7741 O.2     1  UNL1       -0.2681
     23 N         143.7040  142.5403  169.7004 N.am    1  UNL1       -0.1934
     24 O         144.7309  143.2749  170.5103 O.3     1  UNL1       -0.2949
     25 H         143.8795  142.3331  168.7541 H       1  UNL1        0.1825
     26 H         144.4025  143.3970  171.4148 H       1  UNL1        0.2414
     27 C         138.3058  143.4062  161.6689 C.3     1  UNL1        0.1148
     28 C         139.5721  143.9654  161.0911 C.3     1  UNL1        0.0510
     29 C         140.8017  144.0734  161.9434 C.ar    1  UNL1       -0.0202
     30 C         141.0086  145.2784  162.8123 C.ar    1  UNL1       -0.0042
     31 C         142.2382  145.3864  163.6645 C.ar    1  UNL1       -0.0003
     32 C         143.2610  144.2894  163.6478 C.ar    1  UNL1       -0.0000
     33 C         143.0542  143.0844  162.7789 C.ar    1  UNL1       -0.0003
     34 C         141.8245  142.9764  161.9267 C.ar    1  UNL1       -0.0042
@<TRIPOS>BOND
     1    12    13    1
     2    13     1    1
     3     1     2   ar
     4     2     3   ar
     5     3     4   ar
     6     4    14    1
     7    14    15    1
     8    15    16   ar
     9    16    17   ar
    10    17    18   ar
    11    18    21    1
    12    21    22    2
    13    21    23   am
    14    23    24    1
    15    18    19   ar
    16    19    20   ar
    17     4     5   ar
    18     5     6   ar
    19     6     7   ar
    20     7     8   ar
    21     8     9   ar
    22     9    10    2
    23     9    11   ar
    24    11    27    1
    25    27    28    1
    26    28    29    1
    27    29    30   ar
    28    30    31   ar
    29    31    32   ar
    30    32    33   ar
    31    33    34   ar
    32    11     1   ar
    33    34    29   ar
    34     8     3   ar
    35    20    15   ar
    36    23    25    1
    37    24    26    1
@<TRIPOS>MOLECULE
*****
 34 37 0 0 0
SMALL
GASTEIGER

@<TRIPOS>ATOM
      1 C         138.9774  143.1986  163.3285 C.ar    1  UNL1        0.1224
      2 N         138.8164  141.9225  164.1004 N.ar    1  UNL1       -0.2325
      3 C         139.0326  140.6027  163.4210 C.ar    1  UNL1        0.0835
      4 C         138.8717  139.3266  164.1929 C.ar    1  UNL1        0.0000
      5 C         139.0878  138.0069  163.5136 C.ar    1  UNL1       -0.0024
      6 C         139.4649  137.9632  162.0625 C.ar    1  UNL1       -0.0001
      7 C         139.6259  139.2392  161.2906 C.ar    1  UNL1        0.0062
      8 C         139.4097  140.5590  161.9699 C.ar    1  UNL1        0.0735
      9 C         139.5707  141.8350  161.1980 C.ar    1  UNL1        0.2631
     10 O         139.9478  141.7914  159.7469 O.2     1  UNL1       -0.2669
     11 N         139.3545  143.1548  161.8773 N.ar    1  UNL1       -0.2837
     12 C         139.0882  144.6752  165.4633 C.3     1  UNL1        0.0084
     13 C         138.7612  144.5183  164.0078 C.3     1  UNL1        0.0640
     14 C         138.4945  139.3704  165.6441 C.3     1  UNL1        0.0541
     15 C         139.5520  139.5755  166.6879 C.ar    1  UNL1       -0.0177
     16 C         141.0020  139.4948  166.3126 C.ar    1  UNL1       -0.0038
     17 C         142.0595  139.6999  167.3564 C.ar    1  UNL1        0.0043
     18 C         141.6670  139.9856  168.7756 C.ar    1  UNL1        0.0553
     19 C         140.2170  140.0663  169.1511 C.ar    1  UNL1        0.0043
     20 C         139.1595  139.8612  168.1072 C.ar    1  UNL1       -0.0038
     21 C         142.7245  140.1907  169.8195 C.2     1  UNL1        0.2677
     22 O         143.3264  141.5500  170.0205 O.2     1  UNL1       -0.2681
     23 N         143.1802  139.0367  170.6623 N.am    1  UNL1       -0.1934
     24 O         144.2377  139.2418  171.7062 O.3     1  UNL1       -0.2949
     25 H         142.7852  138.1446  170.5304 H       1  UNL1        0.1825
     26 H         144.5171  140.1707  171.7053 H       1  UNL1        0.2414
     27 C         139.5155  144.4309  161.1055 C.3     1  UNL1        0.1148
     28 C         140.8711  145.0579  160.9672 C.3     1  UNL1        0.0510
     29 C         142.0056  144.5894  161.8294 C.ar    1  UNL1       -0.0202
     30 C         142.2027  145.1784  163.1948 C.ar    1  UNL1       -0.0042
     31 C         143.3372  144.7099  164.0570 C.ar    1  UNL1       -0.0003
     32 C         144.2746  143.6525  163.5539 C.ar    1  UNL1       -0.0000
     33 C         144.0774  143.0635  162.1885 C.ar    1  UNL1       -0.0003
     34 C         142.9429  143.5320  161.3263 C.ar    1  UNL1       -0.0042
@<TRIPOS>BOND
     1    12    13    1
     2    13     1    1
     3     1     2   ar
     4     2     3   ar
     5     3     4   ar
     6     4    14    1
     7    14    15    1
     8    15    16   ar
     9    16    17   ar
    10    17    18   ar
    11    18    21    1
    12    21    22    2
    13    21    23   am
    14    23    24    1
    15    18    19   ar
    16    19    20   ar
    17     4     5   ar
    18     5     6   ar
    19     6     7   ar
    20     7     8   ar
    21     8     9   ar
    22     9    10    2
    23     9    11   ar
    24    11    27    1
    25    27    28    1
    26    28    29    1
    27    29    30   ar
    28    30    31   ar
    29    31    32   ar
    30    32    33   ar
    31    33    34   ar
    32    11     1   ar
    33    34    29   ar
    34     8     3   ar
    35    20    15   ar
    36    23    25    1
    37    24    26    1
@<TRIPOS>MOLECULE
*****
 34 37 0 0 0
SMALL
GASTEIGER

@<TRIPOS>ATOM
      1 C         142.8651  142.3055  163.6865 C.ar    1  UNL1        0.1224
      2 N         142.7694  141.1514  164.6399 N.ar    1  UNL1       -0.2325
      3 C         142.1360  139.8651  164.1992 C.ar    1  UNL1        0.0835
      4 C         142.0403  138.7110  165.1527 C.ar    1  UNL1        0.0000
      5 C         141.4070  137.4247  164.7121 C.ar    1  UNL1       -0.0024
      6 C         140.8693  137.2924  163.3180 C.ar    1  UNL1       -0.0001
      7 C         140.9650  138.4465  162.3646 C.ar    1  UNL1        0.0062
      8 C         141.5983  139.7328  162.8052 C.ar    1  UNL1        0.0735
      9 C         141.6940  140.8868  161.8518 C.ar    1  UNL1        0.2631
     10 O         141.1563  140.7546  160.4578 O.2     1  UNL1       -0.2669
     11 N         142.3274  142.1732  162.2924 N.ar    1  UNL1       -0.2837
     12 C         144.4035  143.6111  165.3231 C.3     1  UNL1        0.0084
     13 C         143.4984  143.5918  164.1271 C.3     1  UNL1        0.0640
     14 C         142.5781  138.8433  166.5468 C.3     1  UNL1        0.0541
     15 C         142.0112  139.8769  167.4743 C.ar    1  UNL1       -0.0177
     16 C         140.5284  139.9652  167.6825 C.ar    1  UNL1       -0.0038
     17 C         139.9615  140.9988  168.6101 C.ar    1  UNL1        0.0043
     18 C         140.8774  141.9442  169.3293 C.ar    1  UNL1        0.0553
     19 C         142.3603  141.8559  169.1211 C.ar    1  UNL1        0.0043
     20 C         142.9272  140.8223  168.1936 C.ar    1  UNL1       -0.0038
     21 C         140.3105  142.9778  170.2568 C.2     1  UNL1        0.2677
     22 O         139.9255  142.5992  171.6563 O.2     1  UNL1       -0.2681
     23 N         140.1286  144.3899  169.7849 N.am    1  UNL1       -0.1934
     24 O         139.5617  145.4235  170.7125 O.3     1  UNL1       -0.2949
     25 H         140.3813  144.6384  168.8664 H       1  UNL1        0.1825
     26 H         139.3680  145.0160  171.5711 H       1  UNL1        0.2414
     27 C         142.4231  143.3272  161.3390 C.3     1  UNL1        0.1148
     28 C         141.3285  144.3516  161.2891 C.3     1  UNL1        0.0510
     29 C         140.1637  144.2510  162.2289 C.ar    1  UNL1       -0.0202
     30 C         138.9550  143.4513  161.8423 C.ar    1  UNL1       -0.0042
     31 C         137.7902  143.3507  162.7820 C.ar    1  UNL1       -0.0003
     32 C         137.8341  144.0497  164.1084 C.ar    1  UNL1       -0.0000
     33 C         139.0428  144.8494  164.4950 C.ar    1  UNL1       -0.0003
     34 C         140.2076  144.9500  163.5553 C.ar    1  UNL1       -0.0042
@<TRIPOS>BOND
     1    12    13    1
     2    13     1    1
     3     1     2   ar
     4     2     3   ar
     5     3     4   ar
     6     4    14    1
     7    14    15    1
     8    15    16   ar
     9    16    17   ar
    10    17    18   ar
    11    18    21    1
    12    21    22    2
    13    21    23   am
    14    23    24    1
    15    18    19   ar
    16    19    20   ar
    17     4     5   ar
    18     5     6   ar
    19     6     7   ar
    20     7     8   ar
    21     8     9   ar
    22     9    10    2
    23     9    11   ar
    24    11    27    1
    25    27    28    1
    26    28    29    1
    27    29    30   ar
    28    30    31   ar
    29    31    32   ar
    30    32    33   ar
    31    33    34   ar
    32    11     1   ar
    33    34    29   ar
    34     8     3   ar
    35    20    15   ar
    36    23    25    1
    37    24    26    1
@<TRIPOS>MOLECULE
*****
 34 37 0 0 0
SMALL
GASTEIGER

@<TRIPOS>ATOM
      1 C         142.6860  142.7051  163.4870 C.ar    1  UNL1        0.1224
      2 N         142.6889  141.2985  164.0082 N.ar    1  UNL1       -0.2325
      3 C         142.0180  140.2078  163.2268 C.ar    1  UNL1        0.0835
      4 C         142.0209  138.8013  163.7480 C.ar    1  UNL1        0.0000
      5 C         141.3500  137.7106  162.9667 C.ar    1  UNL1       -0.0024
      6 C         140.6762  138.0265  161.6644 C.ar    1  UNL1       -0.0001
      7 C         140.6733  139.4331  161.1433 C.ar    1  UNL1        0.0062
      8 C         141.3442  140.5238  161.9245 C.ar    1  UNL1        0.0735
      9 C         141.3413  141.9303  161.4034 C.ar    1  UNL1        0.2631
     10 O         140.6675  142.2463  160.1010 O.2     1  UNL1       -0.2669
     11 N         142.0121  143.0210  162.1846 N.ar    1  UNL1       -0.2837
     12 C         144.5141  143.4722  165.1662 C.3     1  UNL1        0.0084
     13 C         143.3569  143.7957  164.2683 C.3     1  UNL1        0.0640
     14 C         142.6947  138.4854  165.0504 C.3     1  UNL1        0.0541
     15 C         142.1089  138.9838  166.3381 C.ar    1  UNL1       -0.0177
     16 C         140.6759  139.4240  166.3895 C.ar    1  UNL1       -0.0038
     17 C         140.0900  139.9225  167.6772 C.ar    1  UNL1        0.0043
     18 C         140.9372  139.9808  168.9137 C.ar    1  UNL1        0.0553
     19 C         142.3703  139.5405  168.8624 C.ar    1  UNL1        0.0043
     20 C         142.9561  139.0421  167.5746 C.ar    1  UNL1       -0.0038
     21 C         140.3514  140.4792  170.2014 C.2     1  UNL1        0.2677
     22 O         139.2378  139.7215  170.8617 O.2     1  UNL1       -0.2681
     23 N         140.8790  141.7353  170.8289 N.am    1  UNL1       -0.1934
     24 O         140.2932  142.2338  172.1167 O.3     1  UNL1       -0.2949
     25 H         141.6099  142.2326  170.3955 H       1  UNL1        0.1825
     26 H         139.5892  141.6324  172.4058 H       1  UNL1        0.2414
     27 C         142.0092  144.4275  161.6635 C.3     1  UNL1        0.1148
     28 C         140.8884  145.3577  162.0217 C.3     1  UNL1        0.0510
     29 C         139.7960  144.8970  162.9406 C.ar    1  UNL1       -0.0202
     30 C         139.9227  145.1064  164.4205 C.ar    1  UNL1       -0.0042
     31 C         138.8304  144.6457  165.3394 C.ar    1  UNL1       -0.0003
     32 C         137.6112  143.9756  164.7785 C.ar    1  UNL1       -0.0000
     33 C         137.4845  143.7662  163.2987 C.ar    1  UNL1       -0.0003
     34 C         138.5769  144.2269  162.3797 C.ar    1  UNL1       -0.0042
@<TRIPOS>BOND
     1    12    13    1
     2    13     1    1
     3     1     2   ar
     4     2     3   ar
     5     3     4   ar
     6     4    14    1
     7    14    15    1
     8    15    16   ar
     9    16    17   ar
    10    17    18   ar
    11    18    21    1
    12    21    22    2
    13    21    23   am
    14    23    24    1
    15    18    19   ar
    16    19    20   ar
    17     4     5   ar
    18     5     6   ar
    19     6     7   ar
    20     7     8   ar
    21     8     9   ar
    22     9    10    2
    23     9    11   ar
    24    11    27    1
    25    27    28    1
    26    28    29    1
    27    29    30   ar
    28    30    31   ar
    29    31    32   ar
    30    32    33   ar
    31    33    34   ar
    32    11     1   ar
    33    34    29   ar
    34     8     3   ar
    35    20    15   ar
    36    23    25    1
    37    24    26    1
@<TRIPOS>MOLECULE
*****
 34 37 0 0 0
SMALL
GASTEIGER

@<TRIPOS>ATOM
      1 C         142.4422  141.5454  161.9212 C.ar    1  UNL1        0.1224
      2 N         142.6629  140.6204  163.0812 N.ar    1  UNL1       -0.2325
      3 C         141.7152  139.4833  163.3246 C.ar    1  UNL1        0.0835
      4 C         141.9360  138.5582  164.4845 C.ar    1  UNL1        0.0000
      5 C         140.9884  137.4212  164.7279 C.ar    1  UNL1       -0.0024
      6 C         139.8201  137.2093  163.8114 C.ar    1  UNL1       -0.0001
      7 C         139.5994  138.1344  162.6514 C.ar    1  UNL1        0.0062
      8 C         140.5469  139.2714  162.4080 C.ar    1  UNL1        0.0735
      9 C         140.3262  140.1965  161.2481 C.ar    1  UNL1        0.2631
     10 O         139.1579  139.9845  160.3315 O.2     1  UNL1       -0.2669
     11 N         141.2738  141.3335  161.0047 N.ar    1  UNL1       -0.2837
     12 C         143.6335  143.6990  162.7536 C.3     1  UNL1        0.0084
     13 C         143.3897  142.6824  161.6778 C.3     1  UNL1        0.0640
     14 C         143.1044  138.7702  165.4011 C.3     1  UNL1        0.0541
     15 C         143.0002  139.7460  166.5356 C.ar    1  UNL1       -0.0177
     16 C         143.1558  141.2154  166.2777 C.ar    1  UNL1       -0.0038
     17 C         143.0517  142.1911  167.4122 C.ar    1  UNL1        0.0043
     18 C         142.7919  141.6975  168.8046 C.ar    1  UNL1        0.0553
     19 C         142.6363  140.2280  169.0625 C.ar    1  UNL1        0.0043
     20 C         142.7404  139.2522  167.9280 C.ar    1  UNL1       -0.0038
     21 C         142.6878  142.6732  169.9391 C.2     1  UNL1        0.2677
     22 O         141.3530  142.9620  170.5598 O.2     1  UNL1       -0.2681
     23 N         143.9182  143.3602  170.4528 N.am    1  UNL1       -0.1934
     24 O         143.8141  144.3359  171.5873 O.3     1  UNL1       -0.2949
     25 H         144.7942  143.1706  170.0454 H       1  UNL1        0.1825
     26 H         142.8887  144.4061  171.8695 H       1  UNL1        0.2414
     27 C         141.0530  142.2585  159.8447 C.3     1  UNL1        0.1148
     28 C         140.1379  143.4381  159.9897 C.3     1  UNL1        0.0510
     29 C         139.5337  143.7590  161.3246 C.ar    1  UNL1       -0.0202
     30 C         140.2190  144.7244  162.2455 C.ar    1  UNL1       -0.0042
     31 C         139.6148  145.0453  163.5804 C.ar    1  UNL1       -0.0003
     32 C         138.3252  144.4007  163.9944 C.ar    1  UNL1       -0.0000
     33 C         137.6398  143.4353  163.0735 C.ar    1  UNL1       -0.0003
     34 C         138.2441  143.1144  161.7386 C.ar    1  UNL1       -0.0042
@<TRIPOS>BOND
     1    12    13    1
     2    13     1    1
     3     1     2   ar
     4     2     3   ar
     5     3     4   ar
     6     4    14    1
     7    14    15    1
     8    15    16   ar
     9    16    17   ar
    10    17    18   ar
    11    18    21    1
    12    21    22    2
    13    21    23   am
    14    23    24    1
    15    18    19   ar
    16    19    20   ar
    17     4     5   ar
    18     5     6   ar
    19     6     7   ar
    20     7     8   ar
    21     8     9   ar
    22     9    10    2
    23     9    11   ar
    24    11    27    1
    25    27    28    1
    26    28    29    1
    27    29    30   ar
    28    30    31   ar
    29    31    32   ar
    30    32    33   ar
    31    33    34   ar
    32    11     1   ar
    33    34    29   ar
    34     8     3   ar
    35    20    15   ar
    36    23    25    1
    37    24    26    1
@<TRIPOS>MOLECULE
*****
 34 37 0 0 0
SMALL
GASTEIGER

@<TRIPOS>ATOM
      1 C         139.0472  142.2480  162.1127 C.ar    1  UNL1        0.1224
      2 N         138.8851  141.2708  163.2392 N.ar    1  UNL1       -0.2325
      3 C         139.6310  139.9696  163.2164 C.ar    1  UNL1        0.0835
      4 C         139.4689  138.9924  164.3429 C.ar    1  UNL1        0.0000
      5 C         140.2147  137.6912  164.3202 C.ar    1  UNL1       -0.0024
      6 C         141.1227  137.3672  163.1711 C.ar    1  UNL1       -0.0001
      7 C         141.2849  138.3444  162.0446 C.ar    1  UNL1        0.0062
      8 C         140.5390  139.6456  162.0673 C.ar    1  UNL1        0.0735
      9 C         140.7012  140.6227  160.9409 C.ar    1  UNL1        0.2631
     10 O         141.6091  140.2987  159.7918 O.2     1  UNL1       -0.2669
     11 N         139.9553  141.9239  160.9636 N.ar    1  UNL1       -0.2837
     12 C         138.0423  144.2425  163.4401 C.3     1  UNL1        0.0084
     13 C         138.3014  143.5492  162.1354 C.3     1  UNL1        0.0640
     14 C         138.5608  139.3165  165.4920 C.3     1  UNL1        0.0541
     15 C         139.0921  140.0610  166.6809 C.ar    1  UNL1       -0.0177
     16 C         138.8247  139.5512  168.0660 C.ar    1  UNL1       -0.0038
     17 C         139.3560  140.2957  169.2548 C.ar    1  UNL1        0.0043
     18 C         140.1548  141.5500  169.0586 C.ar    1  UNL1        0.0553
     19 C         140.4223  142.0599  167.6735 C.ar    1  UNL1        0.0043
     20 C         139.8910  141.3154  166.4846 C.ar    1  UNL1       -0.0038
     21 C         140.6861  142.2945  170.2475 C.2     1  UNL1        0.2677
     22 O         140.2049  143.6853  170.5379 O.2     1  UNL1       -0.2681
     23 N         141.6986  141.6483  171.1459 N.am    1  UNL1       -0.1934
     24 O         142.2299  142.3928  172.3348 O.3     1  UNL1       -0.2949
     25 H         142.0144  140.7356  170.9553 H       1  UNL1        0.1825
     26 H         141.8187  143.2703  172.3770 H       1  UNL1        0.2414
     27 C         140.1174  142.9011  159.8372 C.3     1  UNL1        0.1148
     28 C         141.2309  143.9056  159.8701 C.3     1  UNL1        0.0510
     29 C         142.0524  144.0742  161.1138 C.ar    1  UNL1       -0.0202
     30 C         143.3540  143.3429  161.2577 C.ar    1  UNL1       -0.0042
     31 C         144.1755  143.5114  162.5014 C.ar    1  UNL1       -0.0003
     32 C         143.6953  144.4113  163.6012 C.ar    1  UNL1       -0.0000
     33 C         142.3937  145.1427  163.4573 C.ar    1  UNL1       -0.0003
     34 C         141.5722  144.9741  162.2136 C.ar    1  UNL1       -0.0042
@<TRIPOS>BOND
     1    12    13    1
     2    13     1    1
     3     1     2   ar
     4     2     3   ar
     5     3     4   ar
     6     4    14    1
     7    14    15    1
     8    15    16   ar
     9    16    17   ar
    10    17    18   ar
    11    18    21    1
    12    21    22    2
    13    21    23   am
    14    23    24    1
    15    18    19   ar
    16    19    20   ar
    17     4     5   ar
    18     5     6   ar
    19     6     7   ar
    20     7     8   ar
    21     8     9   ar
    22     9    10    2
    23     9    11   ar
    24    11    27    1
    25    27    28    1
    26    28    29    1
    27    29    30   ar
    28    30    31   ar
    29    31    32   ar
    30    32    33   ar
    31    33    34   ar
    32    11     1   ar
    33    34    29   ar
    34     8     3   ar
    35    20    15   ar
    36    23    25    1
    37    24    26    1
@<TRIPOS>MOLECULE
*****
 34 37 0 0 0
SMALL
GASTEIGER

@<TRIPOS>ATOM
      1 C         139.9533  139.7929  162.6241 C.ar    1  UNL1        0.1224
      2 N         140.8648  139.6449  163.8061 N.ar    1  UNL1       -0.2325
      3 C         142.3094  140.0329  163.6925 C.ar    1  UNL1        0.0835
      4 C         143.2209  139.8849  164.8745 C.ar    1  UNL1        0.0000
      5 C         144.6653  140.2729  164.7610 C.ar    1  UNL1       -0.0024
      6 C         145.1983  140.8088  163.4653 C.ar    1  UNL1       -0.0001
      7 C         144.2868  140.9568  162.2833 C.ar    1  UNL1        0.0062
      8 C         142.8423  140.5688  162.3969 C.ar    1  UNL1        0.0735
      9 C         141.9308  140.7168  161.2148 C.ar    1  UNL1        0.2631
     10 O         142.4637  141.2528  159.9192 O.2     1  UNL1       -0.2669
     11 N         140.4863  140.3289  161.3284 N.ar    1  UNL1       -0.2837
     12 C         138.0300  138.1137  162.1431 C.3     1  UNL1        0.0084
     13 C         138.5088  139.4049  162.7376 C.3     1  UNL1        0.0640
     14 C         142.6878  139.3489  166.1702 C.3     1  UNL1        0.0541
     15 C         142.0859  140.2834  167.1774 C.ar    1  UNL1       -0.0177
     16 C         140.6787  140.0704  167.6509 C.ar    1  UNL1       -0.0038
     17 C         140.0767  141.0048  168.6581 C.ar    1  UNL1        0.0043
     18 C         140.8820  142.1523  169.1918 C.ar    1  UNL1        0.0553
     19 C         142.2893  142.3653  168.7183 C.ar    1  UNL1        0.0043
     20 C         142.8913  141.4308  167.7111 C.ar    1  UNL1       -0.0038
     21 C         140.2801  143.0867  170.1990 C.2     1  UNL1        0.2677
     22 O         139.8302  142.5647  171.5314 O.2     1  UNL1       -0.2681
     23 N         140.1280  144.5431  169.8739 N.am    1  UNL1       -0.1934
     24 O         139.5260  145.4775  170.8811 O.3     1  UNL1       -0.2949
     25 H         140.4232  144.8857  168.9994 H       1  UNL1        0.1825
     26 H         139.2915  144.9826  171.6816 H       1  UNL1        0.2414
     27 C         139.5748  140.4769  160.1463 C.3     1  UNL1        0.1148
     28 C         138.8585  141.7732  159.9093 C.3     1  UNL1        0.0510
     29 C         138.8991  142.8536  160.9491 C.ar    1  UNL1       -0.0202
     30 C         139.9751  143.8977  160.9041 C.ar    1  UNL1       -0.0042
     31 C         140.0158  144.9781  161.9439 C.ar    1  UNL1       -0.0003
     32 C         138.9804  145.0144  163.0286 C.ar    1  UNL1       -0.0000
     33 C         137.9044  143.9704  163.0735 C.ar    1  UNL1       -0.0003
     34 C         137.8637  142.8900  162.0338 C.ar    1  UNL1       -0.0042
@<TRIPOS>BOND
     1    12    13    1
     2    13     1    1
     3     1     2   ar
     4     2     3   ar
     5     3     4   ar
     6     4    14    1
     7    14    15    1
     8    15    16   ar
     9    16    17   ar
    10    17    18   ar
    11    18    21    1
    12    21    22    2
    13    21    23   am
    14    23    24    1
    15    18    19   ar
    16    19    20   ar
    17     4     5   ar
    18     5     6   ar
    19     6     7   ar
    20     7     8   ar
    21     8     9   ar
    22     9    10    2
    23     9    11   ar
    24    11    27    1
    25    27    28    1
    26    28    29    1
    27    29    30   ar
    28    30    31   ar
    29    31    32   ar
    30    32    33   ar
    31    33    34   ar
    32    11     1   ar
    33    34    29   ar
    34     8     3   ar
    35    20    15   ar
    36    23    25    1
    37    24    26    1
@<TRIPOS>MOLECULE
*****
 34 37 0 0 0
SMALL
GASTEIGER

@<TRIPOS>ATOM
      1 C         140.3688  138.9403  162.6149 C.ar    1  UNL1        0.1224
      2 N         141.6861  139.1448  163.3026 N.ar    1  UNL1       -0.2325
      3 C         142.7102  140.0629  162.7038 C.ar    1  UNL1        0.0835
      4 C         144.0275  140.2674  163.3914 C.ar    1  UNL1        0.0000
      5 C         145.0515  141.1855  162.7927 C.ar    1  UNL1       -0.0024
      6 C         144.7582  141.8990  161.5064 C.ar    1  UNL1       -0.0001
      7 C         143.4409  141.6946  160.8187 C.ar    1  UNL1        0.0062
      8 C         142.4169  140.7765  161.4174 C.ar    1  UNL1        0.0735
      9 C         141.0995  140.5720  160.7298 C.ar    1  UNL1        0.2631
     10 O         140.8062  141.2856  159.4435 O.2     1  UNL1       -0.2669
     11 N         140.0755  139.6540  161.3285 N.ar    1  UNL1       -0.2837
     12 C         139.3938  137.6965  164.6770 C.3     1  UNL1        0.0084
     13 C         139.3448  138.0223  163.2136 C.3     1  UNL1        0.0640
     14 C         144.3207  139.5538  164.6778 C.3     1  UNL1        0.0541
     15 C         143.5588  139.9054  165.9211 C.ar    1  UNL1       -0.0177
     16 C         143.1082  141.3176  166.1504 C.ar    1  UNL1       -0.0038
     17 C         142.3463  141.6693  167.3937 C.ar    1  UNL1        0.0043
     18 C         142.0350  140.6088  168.4078 C.ar    1  UNL1        0.0553
     19 C         142.4857  139.1965  168.1786 C.ar    1  UNL1        0.0043
     20 C         143.2476  138.8448  166.9352 C.ar    1  UNL1       -0.0038
     21 C         141.2731  140.9604  169.6511 C.2     1  UNL1        0.2677
     22 O         140.3224  142.1207  169.6451 O.2     1  UNL1       -0.2681
     23 N         141.4619  140.1519  170.9003 N.am    1  UNL1       -0.1934
     24 O         140.7000  140.5036  172.1436 O.3     1  UNL1       -0.2949
     25 H         142.0859  139.3904  170.9042 H       1  UNL1        0.1825
     26 H         140.1346  141.2724  171.9698 H       1  UNL1        0.2414
     27 C         138.7582  139.4495  160.6409 C.3     1  UNL1        0.1148
     28 C         137.5922  140.3315  160.9763 C.3     1  UNL1        0.0510
     29 C         137.7521  141.4382  161.9761 C.ar    1  UNL1       -0.0202
     30 C         138.1339  142.8142  161.5171 C.ar    1  UNL1       -0.0042
     31 C         138.2938  143.9209  162.5170 C.ar    1  UNL1       -0.0003
     32 C         138.0719  143.6516  163.9758 C.ar    1  UNL1       -0.0000
     33 C         137.6900  142.2755  164.4347 C.ar    1  UNL1       -0.0003
     34 C         137.5302  141.1688  163.4349 C.ar    1  UNL1       -0.0042
@<TRIPOS>BOND
     1    12    13    1
     2    13     1    1
     3     1     2   ar
     4     2     3   ar
     5     3     4   ar
     6     4    14    1
     7    14    15    1
     8    15    16   ar
     9    16    17   ar
    10    17    18   ar
    11    18    21    1
    12    21    22    2
    13    21    23   am
    14    23    24    1
    15    18    19   ar
    16    19    20   ar
    17     4     5   ar
    18     5     6   ar
    19     6     7   ar
    20     7     8   ar
    21     8     9   ar
    22     9    10    2
    23     9    11   ar
    24    11    27    1
    25    27    28    1
    26    28    29    1
    27    29    30   ar
    28    30    31   ar
    29    31    32   ar
    30    32    33   ar
    31    33    34   ar
    32    11     1   ar
    33    34    29   ar
    34     8     3   ar
    35    20    15   ar
    36    23    25    1
    37    24    26    1
