@<TRIPOS>MOLECULE
*****
 33 37 0 0 0
SMALL
GASTEIGER

@<TRIPOS>ATOM
      1 C         141.3459  142.2884  167.4280 C.ar    1  UNL1        0.1060
      2 C         142.4485  141.7196  166.5850 C.ar    1  UNL1        0.0215
      3 C         142.5578  142.0983  165.1378 C.ar    1  UNL1        0.0383
      4 C         141.5644  143.0459  164.5334 C.ar    1  UNL1        0.1410
      5 C         140.4617  143.6148  165.3763 C.ar    1  UNL1        0.0700
      6 C         140.3525  143.2360  166.8237 C.ar    1  UNL1        0.0242
      7 C         139.4683  144.5623  164.7720 C.2     1  UNL1        0.1795
      8 O         138.3656  145.1312  165.6150 O.2     1  UNL1       -0.2911
      9 C         139.5775  144.9411  163.3247 C.3     1  UNL1        0.1092
     10 C         140.6802  144.3722  162.4817 C.3     1  UNL1        0.1436
     11 C         139.6868  145.3198  161.8774 C.3     1  UNL1        0.0620
     12 C         139.7960  145.6985  160.4302 C.3     1  UNL1        0.0985
     13 N         140.8987  145.1296  159.5872 N.am    1  UNL1       -0.2640
     14 C         141.0079  145.5084  158.1399 C.2     1  UNL1        0.3039
     15 O         142.1106  144.9395  157.2970 O.2     1  UNL1       -0.2526
     16 N         140.0145  146.4560  157.5356 N.am    1  UNL1       -0.2901
     17 C         141.8921  144.1821  160.1916 C.3     1  UNL1        0.0985
     18 C         141.7828  143.8034  161.6388 C.3     1  UNL1        0.0620
     19 O         141.6736  143.4246  163.0861 O.3     1  UNL1       -0.4819
     20 H         139.2908  146.8293  158.0889 H       1  UNL1        0.1509
     21 C         141.1274  141.5310  170.3226 C.3     1  UNL1        0.1816
     22 S         141.2366  141.9097  168.8752 S.O2    1  UNL1        0.0105
     23 O         140.4320  143.1479  169.1385 O.2     1  UNL1       -0.1686
     24 O         142.0412  140.6715  168.6120 O.2     1  UNL1       -0.1686
     25 C         140.1237  146.8347  156.0883 C.3     1  UNL1        0.0774
     26 C         140.4652  146.4732  154.6731 C.3     1  UNL1        0.0259
     27 C         139.9715  147.8522  154.9967 C.3     1  UNL1        0.0420
     28 C         139.5985  149.2357  154.5533 C.ar    1  UNL1       -0.0208
     29 C         139.9746  149.7104  153.1810 C.ar    1  UNL1       -0.0042
     30 C         139.6016  151.0940  152.7376 C.ar    1  UNL1       -0.0003
     31 C         138.8525  152.0029  153.6665 C.ar    1  UNL1       -0.0000
     32 C         138.4764  151.5282  155.0388 C.ar    1  UNL1       -0.0003
     33 C         138.8494  150.1445  155.4822 C.ar    1  UNL1       -0.0042
@<TRIPOS>BOND
     1    21    22    1
     2    22    23    2
     3    22    24    2
     4    22     1    1
     5     1     2   ar
     6     2     3   ar
     7     3     4   ar
     8     4     5   ar
     9     5     6   ar
    10     5     7    1
    11     7     8    2
    12     7     9    1
    13     9    10    1
    14    10    11    1
    15    11    12    1
    16    12    13    1
    17    13    14   am
    18    14    15    2
    19    14    16   am
    20    25    16    1
    21    25    26    1
    22    26    27    1
    23    27    28    1
    24    28    29   ar
    25    29    30   ar
    26    30    31   ar
    27    31    32   ar
    28    32    33   ar
    29    13    17    1
    30    17    18    1
    31    10    19    1
    32     6     1   ar
    33    18    10    1
    34    19     4    1
    35    27    25    1
    36    33    28   ar
    37    16    20    1
@<TRIPOS>MOLECULE
*****
 33 37 0 0 0
SMALL
GASTEIGER

@<TRIPOS>ATOM
      1 C         142.0428  141.1943  168.1352 C.ar    1  UNL1        0.1060
      2 C         141.3043  140.1805  167.3126 C.ar    1  UNL1        0.0215
      3 C         141.5378  140.1012  165.8330 C.ar    1  UNL1        0.0383
      4 C         142.5098  141.0359  165.1760 C.ar    1  UNL1        0.1410
      5 C         143.2483  142.0497  165.9986 C.ar    1  UNL1        0.0700
      6 C         143.0148  142.1290  167.4782 C.ar    1  UNL1        0.0242
      7 C         144.2203  142.9844  165.3416 C.2     1  UNL1        0.1795
      8 O         144.9588  143.9982  166.1642 O.2     1  UNL1       -0.2911
      9 C         144.4539  142.9052  163.8620 C.3     1  UNL1        0.1092
     10 C         143.7154  141.8913  163.0394 C.3     1  UNL1        0.1436
     11 C         144.6874  142.8259  162.3824 C.3     1  UNL1        0.0620
     12 C         144.9209  142.7467  160.9029 C.3     1  UNL1        0.0985
     13 N         144.1824  141.7328  160.0802 N.am    1  UNL1       -0.2640
     14 C         144.4159  141.6536  158.6006 C.2     1  UNL1        0.3039
     15 O         143.6774  140.6397  157.7780 O.2     1  UNL1       -0.2526
     16 N         145.3879  142.5882  157.9437 N.am    1  UNL1       -0.2901
     17 C         143.2104  140.7982  160.7372 C.3     1  UNL1        0.0985
     18 C         142.9769  140.8774  162.2168 C.3     1  UNL1        0.0620
     19 O         142.7433  140.9566  163.6964 O.3     1  UNL1       -0.4819
     20 H         145.8726  143.2537  158.4836 H       1  UNL1        0.1509
     21 C         141.5758  141.3528  171.0944 C.3     1  UNL1        0.1816
     22 S         141.8093  141.2736  169.6147 S.O2    1  UNL1        0.0105
     23 O         142.4439  142.6324  169.6421 O.2     1  UNL1       -0.1686
     24 O         141.1747  139.9147  169.5874 O.2     1  UNL1       -0.1686
     25 C         145.6215  142.5090  156.4640 C.3     1  UNL1        0.0774
     26 C         145.0836  142.3994  155.0681 C.3     1  UNL1        0.0259
     27 C         146.5637  142.4814  155.2972 C.3     1  UNL1        0.0420
     28 C         147.9623  142.5128  154.7560 C.ar    1  UNL1       -0.0208
     29 C         148.2755  143.3242  153.5338 C.ar    1  UNL1       -0.0042
     30 C         149.6740  143.3556  152.9926 C.ar    1  UNL1       -0.0003
     31 C         150.7595  142.5756  153.6734 C.ar    1  UNL1       -0.0000
     32 C         150.4463  141.7643  154.8956 C.ar    1  UNL1       -0.0003
     33 C         149.0476  141.7329  155.4368 C.ar    1  UNL1       -0.0042
@<TRIPOS>BOND
     1    21    22    1
     2    22    23    2
     3    22    24    2
     4    22     1    1
     5     1     2   ar
     6     2     3   ar
     7     3     4   ar
     8     4     5   ar
     9     5     6   ar
    10     5     7    1
    11     7     8    2
    12     7     9    1
    13     9    10    1
    14    10    11    1
    15    11    12    1
    16    12    13    1
    17    13    14   am
    18    14    15    2
    19    14    16   am
    20    25    16    1
    21    25    26    1
    22    26    27    1
    23    27    28    1
    24    28    29   ar
    25    29    30   ar
    26    30    31   ar
    27    31    32   ar
    28    32    33   ar
    29    13    17    1
    30    17    18    1
    31    10    19    1
    32     6     1   ar
    33    18    10    1
    34    19     4    1
    35    27    25    1
    36    33    28   ar
    37    16    20    1
@<TRIPOS>MOLECULE
*****
 33 37 0 0 0
SMALL
GASTEIGER

@<TRIPOS>ATOM
      1 C         140.8202  140.0345  168.1305 C.ar    1  UNL1        0.1060
      2 C         139.5627  140.3109  167.3609 C.ar    1  UNL1        0.0215
      3 C         139.5234  140.0779  165.8797 C.ar    1  UNL1        0.0383
      4 C         140.7416  139.5683  165.1680 C.ar    1  UNL1        0.1410
      5 C         141.9991  139.2919  165.9376 C.ar    1  UNL1        0.0700
      6 C         142.0383  139.5249  167.4190 C.ar    1  UNL1        0.0242
      7 C         143.2173  138.7823  165.2261 C.2     1  UNL1        0.1795
      8 O         144.4747  138.5058  165.9957 O.2     1  UNL1       -0.2911
      9 C         143.1780  138.5492  163.7447 C.3     1  UNL1        0.1092
     10 C         141.9206  138.8257  162.9751 C.3     1  UNL1        0.1436
     11 C         143.1387  138.3162  162.2635 C.3     1  UNL1        0.0620
     12 C         143.0994  138.0832  160.7823 C.3     1  UNL1        0.0985
     13 N         141.8420  138.3596  160.0126 N.am    1  UNL1       -0.2640
     14 C         141.8027  138.1266  158.5313 C.2     1  UNL1        0.3039
     15 O         140.5453  138.4031  157.7617 O.2     1  UNL1       -0.2526
     16 N         143.0209  137.6170  157.8197 N.am    1  UNL1       -0.2901
     17 C         140.6238  138.8692  160.7242 C.3     1  UNL1        0.0985
     18 C         140.6631  139.1022  162.2054 C.3     1  UNL1        0.0620
     19 O         140.7024  139.3353  163.6868 O.3     1  UNL1       -0.4819
     20 H         143.8462  137.4356  158.3249 H       1  UNL1        0.1509
     21 C         140.8988  140.5006  171.0931 C.3     1  UNL1        0.1816
     22 S         140.8595  140.2675  169.6118 S.O2    1  UNL1        0.0105
     23 O         139.4173  139.8678  169.7129 O.2     1  UNL1       -0.1686
     24 O         142.3017  140.6672  169.5106 O.2     1  UNL1       -0.1686
     25 C         142.9817  137.3840  156.3384 C.3     1  UNL1        0.0774
     26 C         143.0117  137.9200  154.9378 C.3     1  UNL1        0.0259
     27 C         142.8836  136.4442  155.1734 C.3     1  UNL1        0.0420
     28 C         142.7531  135.0496  154.6368 C.ar    1  UNL1       -0.0208
     29 C         142.0066  134.8045  153.3590 C.ar    1  UNL1       -0.0042
     30 C         141.8761  133.4099  152.8224 C.ar    1  UNL1       -0.0003
     31 C         142.4920  132.2603  153.5636 C.ar    1  UNL1       -0.0000
     32 C         143.2384  132.5055  154.8414 C.ar    1  UNL1       -0.0003
     33 C         143.3690  133.9002  155.3780 C.ar    1  UNL1       -0.0042
@<TRIPOS>BOND
     1    21    22    1
     2    22    23    2
     3    22    24    2
     4    22     1    1
     5     1     2   ar
     6     2     3   ar
     7     3     4   ar
     8     4     5   ar
     9     5     6   ar
    10     5     7    1
    11     7     8    2
    12     7     9    1
    13     9    10    1
    14    10    11    1
    15    11    12    1
    16    12    13    1
    17    13    14   am
    18    14    15    2
    19    14    16   am
    20    25    16    1
    21    25    26    1
    22    26    27    1
    23    27    28    1
    24    28    29   ar
    25    29    30   ar
    26    30    31   ar
    27    31    32   ar
    28    32    33   ar
    29    13    17    1
    30    17    18    1
    31    10    19    1
    32     6     1   ar
    33    18    10    1
    34    19     4    1
    35    27    25    1
    36    33    28   ar
    37    16    20    1
@<TRIPOS>MOLECULE
*****
 33 37 0 0 0
SMALL
GASTEIGER

@<TRIPOS>ATOM
      1 C         141.0676  141.0744  167.7004 C.ar    1  UNL1        0.1060
      2 C         142.2913  141.8953  167.4196 C.ar    1  UNL1        0.0215
      3 C         142.4534  142.5693  166.0894 C.ar    1  UNL1        0.0383
      4 C         141.3918  142.4223  165.0399 C.ar    1  UNL1        0.1410
      5 C         140.1681  141.6014  165.3206 C.ar    1  UNL1        0.0700
      6 C         140.0061  140.9275  166.6509 C.ar    1  UNL1        0.0242
      7 C         139.1066  141.4545  164.2711 C.2     1  UNL1        0.1795
      8 O         137.8829  140.6336  164.5518 O.2     1  UNL1       -0.2911
      9 C         139.2687  142.1284  162.9408 C.3     1  UNL1        0.1092
     10 C         140.4923  142.9493  162.6601 C.3     1  UNL1        0.1436
     11 C         139.4308  142.8024  161.6106 C.3     1  UNL1        0.0620
     12 C         139.5929  143.4763  160.2804 C.3     1  UNL1        0.0985
     13 N         140.8165  144.2972  159.9997 N.am    1  UNL1       -0.2640
     14 C         140.9786  144.9712  158.6694 C.2     1  UNL1        0.3039
     15 O         142.2022  145.7921  158.3887 O.2     1  UNL1       -0.2526
     16 N         139.9170  144.8242  157.6199 N.am    1  UNL1       -0.2901
     17 C         141.8781  144.4442  161.0492 C.3     1  UNL1        0.0985
     18 C         141.7160  143.7703  162.3794 C.3     1  UNL1        0.0620
     19 O         141.5539  143.0963  163.7097 O.3     1  UNL1       -0.4819
     20 H         139.1139  144.2854  157.8042 H       1  UNL1        0.1509
     21 C         140.7434  139.7265  170.3608 C.3     1  UNL1        0.1816
     22 S         140.9055  140.4005  169.0305 S.O2    1  UNL1        0.0105
     23 O         142.2530  140.9074  169.4516 O.2     1  UNL1       -0.1686
     24 O         139.5581  139.8936  168.6095 O.2     1  UNL1       -0.1686
     25 C         140.0791  145.4982  156.2896 C.3     1  UNL1        0.0774
     26 C         140.4999  145.4481  154.8508 C.3     1  UNL1        0.0259
     27 C         139.9390  146.7155  155.4245 C.3     1  UNL1        0.0420
     28 C         139.5343  148.1500  155.2562 C.ar    1  UNL1       -0.0208
     29 C         138.6884  148.8179  156.2994 C.ar    1  UNL1       -0.0042
     30 C         138.2837  150.2524  156.1312 C.ar    1  UNL1       -0.0003
     31 C         138.7249  151.0191  154.9196 C.ar    1  UNL1       -0.0000
     32 C         139.5708  150.3512  153.8764 C.ar    1  UNL1       -0.0003
     33 C         139.9755  148.9166  154.0447 C.ar    1  UNL1       -0.0042
@<TRIPOS>BOND
     1    21    22    1
     2    22    23    2
     3    22    24    2
     4    22     1    1
     5     1     2   ar
     6     2     3   ar
     7     3     4   ar
     8     4     5   ar
     9     5     6   ar
    10     5     7    1
    11     7     8    2
    12     7     9    1
    13     9    10    1
    14    10    11    1
    15    11    12    1
    16    12    13    1
    17    13    14   am
    18    14    15    2
    19    14    16   am
    20    25    16    1
    21    25    26    1
    22    26    27    1
    23    27    28    1
    24    28    29   ar
    25    29    30   ar
    26    30    31   ar
    27    31    32   ar
    28    32    33   ar
    29    13    17    1
    30    17    18    1
    31    10    19    1
    32     6     1   ar
    33    18    10    1
    34    19     4    1
    35    27    25    1
    36    33    28   ar
    37    16    20    1
@<TRIPOS>MOLECULE
*****
 33 37 0 0 0
SMALL
GASTEIGER

@<TRIPOS>ATOM
      1 C         141.2405  139.9411  168.2359 C.ar    1  UNL1        0.1060
      2 C         142.6091  139.5115  167.7973 C.ar    1  UNL1        0.0215
      3 C         142.8619  139.1657  166.3598 C.ar    1  UNL1        0.0383
      4 C         141.7461  139.2496  165.3608 C.ar    1  UNL1        0.1410
      5 C         140.3775  139.6793  165.7993 C.ar    1  UNL1        0.0700
      6 C         140.1247  140.0250  167.2369 C.ar    1  UNL1        0.0242
      7 C         139.2617  139.7632  164.8004 C.2     1  UNL1        0.1795
      8 O         137.8931  140.1928  165.2389 O.2     1  UNL1       -0.2911
      9 C         139.5145  139.4174  163.3628 C.3     1  UNL1        0.1092
     10 C         140.8831  138.9878  162.9242 C.3     1  UNL1        0.1436
     11 C         139.7673  139.0717  161.9252 C.3     1  UNL1        0.0620
     12 C         140.0202  138.7259  160.4877 C.3     1  UNL1        0.0985
     13 N         141.3888  138.2963  160.0492 N.am    1  UNL1       -0.2640
     14 C         141.6416  137.9505  158.6116 C.2     1  UNL1        0.3039
     15 O         143.0102  137.5209  158.1730 O.2     1  UNL1       -0.2526
     16 N         140.5258  138.0344  157.6126 N.am    1  UNL1       -0.2901
     17 C         142.5045  138.2124  161.0481 C.3     1  UNL1        0.0985
     18 C         142.2517  138.5581  162.4856 C.3     1  UNL1        0.0620
     19 O         141.9989  138.9039  163.9232 O.3     1  UNL1       -0.4819
     20 H         139.6275  138.3164  157.9005 H       1  UNL1        0.1509
     21 C         140.7348  140.6326  171.1110 C.3     1  UNL1        0.1816
     22 S         140.9877  140.2869  169.6734 S.O2    1  UNL1        0.0105
     23 O         142.4238  140.6910  169.8288 O.2     1  UNL1       -0.1686
     24 O         139.5516  139.8827  169.5180 O.2     1  UNL1       -0.1686
     25 C         140.7786  137.6887  156.1750 C.3     1  UNL1        0.0774
     26 C         140.8190  138.0897  154.7302 C.3     1  UNL1        0.0259
     27 C         141.1759  136.6887  155.1299 C.3     1  UNL1        0.0420
     28 C         141.6114  135.3026  154.7573 C.ar    1  UNL1       -0.0208
     29 C         141.4191  134.8077  153.3544 C.ar    1  UNL1       -0.0042
     30 C         141.8546  133.4215  152.9817 C.ar    1  UNL1       -0.0003
     31 C         142.4823  132.5302  154.0121 C.ar    1  UNL1       -0.0000
     32 C         142.6746  133.0251  155.4149 C.ar    1  UNL1       -0.0003
     33 C         142.2391  134.4113  155.7875 C.ar    1  UNL1       -0.0042
@<TRIPOS>BOND
     1    21    22    1
     2    22    23    2
     3    22    24    2
     4    22     1    1
     5     1     2   ar
     6     2     3   ar
     7     3     4   ar
     8     4     5   ar
     9     5     6   ar
    10     5     7    1
    11     7     8    2
    12     7     9    1
    13     9    10    1
    14    10    11    1
    15    11    12    1
    16    12    13    1
    17    13    14   am
    18    14    15    2
    19    14    16   am
    20    25    16    1
    21    25    26    1
    22    26    27    1
    23    27    28    1
    24    28    29   ar
    25    29    30   ar
    26    30    31   ar
    27    31    32   ar
    28    32    33   ar
    29    13    17    1
    30    17    18    1
    31    10    19    1
    32     6     1   ar
    33    18    10    1
    34    19     4    1
    35    27    25    1
    36    33    28   ar
    37    16    20    1
@<TRIPOS>MOLECULE
*****
 33 37 0 0 0
SMALL
GASTEIGER

@<TRIPOS>ATOM
      1 C         141.1879  141.1821  168.0398 C.ar    1  UNL1        0.1060
      2 C         140.5449  142.4045  167.4548 C.ar    1  UNL1        0.0215
      3 C         140.8442  142.8056  166.0408 C.ar    1  UNL1        0.0383
      4 C         141.7867  141.9843  165.2117 C.ar    1  UNL1        0.1410
      5 C         142.4298  140.7620  165.7967 C.ar    1  UNL1        0.0700
      6 C         142.1304  140.3609  167.2108 C.ar    1  UNL1        0.0242
      7 C         143.3723  139.9407  164.9678 C.2     1  UNL1        0.1795
      8 O         144.0153  138.7183  165.5528 O.2     1  UNL1       -0.2911
      9 C         143.6717  140.3418  163.5537 C.3     1  UNL1        0.1092
     10 C         143.0286  141.5642  162.9687 C.3     1  UNL1        0.1436
     11 C         143.9710  140.7429  162.1397 C.3     1  UNL1        0.0620
     12 C         144.2704  141.1440  160.7257 C.3     1  UNL1        0.0985
     13 N         143.6273  142.3664  160.1407 N.am    1  UNL1       -0.2640
     14 C         143.9267  142.7675  158.7266 C.2     1  UNL1        0.3039
     15 O         143.2837  143.9898  158.1416 O.2     1  UNL1       -0.2526
     16 N         144.8692  141.9462  157.8976 N.am    1  UNL1       -0.2901
     17 C         142.6849  143.1876  160.9696 C.3     1  UNL1        0.0985
     18 C         142.3855  142.7865  162.3836 C.3     1  UNL1        0.0620
     19 O         142.0861  142.3854  163.7977 O.3     1  UNL1       -0.4819
     20 H         145.2913  141.1439  158.2816 H       1  UNL1        0.1509
     21 C         140.5891  140.3799  170.8679 C.3     1  UNL1        0.1816
     22 S         140.8886  140.7810  169.4538 S.O2    1  UNL1        0.0105
     23 O         141.9835  141.6828  169.9414 O.2     1  UNL1       -0.1686
     24 O         139.7936  139.8792  168.9662 O.2     1  UNL1       -0.1686
     25 C         145.1686  142.3473  156.4835 C.3     1  UNL1        0.0774
     26 C         144.6982  142.8208  155.1402 C.3     1  UNL1        0.0259
     27 C         146.1576  142.5685  155.3776 C.3     1  UNL1        0.0420
     28 C         147.5712  142.5505  154.8763 C.ar    1  UNL1       -0.0208
     29 C         148.6063  141.7243  155.5804 C.ar    1  UNL1       -0.0042
     30 C         150.0199  141.7063  155.0790 C.ar    1  UNL1       -0.0003
     31 C         150.3984  142.5147  153.8735 C.ar    1  UNL1       -0.0000
     32 C         149.3633  143.3409  153.1693 C.ar    1  UNL1       -0.0003
     33 C         147.9497  143.3589  153.6707 C.ar    1  UNL1       -0.0042
@<TRIPOS>BOND
     1    21    22    1
     2    22    23    2
     3    22    24    2
     4    22     1    1
     5     1     2   ar
     6     2     3   ar
     7     3     4   ar
     8     4     5   ar
     9     5     6   ar
    10     5     7    1
    11     7     8    2
    12     7     9    1
    13     9    10    1
    14    10    11    1
    15    11    12    1
    16    12    13    1
    17    13    14   am
    18    14    15    2
    19    14    16   am
    20    25    16    1
    21    25    26    1
    22    26    27    1
    23    27    28    1
    24    28    29   ar
    25    29    30   ar
    26    30    31   ar
    27    31    32   ar
    28    32    33   ar
    29    13    17    1
    30    17    18    1
    31    10    19    1
    32     6     1   ar
    33    18    10    1
    34    19     4    1
    35    27    25    1
    36    33    28   ar
    37    16    20    1
@<TRIPOS>MOLECULE
*****
 33 37 0 0 0
SMALL
GASTEIGER

@<TRIPOS>ATOM
      1 C         140.2207  141.2511  168.4939 C.ar    1  UNL1        0.1060
      2 C         140.7221  142.5007  167.8326 C.ar    1  UNL1        0.0215
      3 C         140.5039  142.7111  166.3636 C.ar    1  UNL1        0.0383
      4 C         139.7844  141.6720  165.5558 C.ar    1  UNL1        0.1410
      5 C         139.2831  140.4224  166.2170 C.ar    1  UNL1        0.0700
      6 C         139.5013  140.2120  167.6861 C.ar    1  UNL1        0.0242
      7 C         138.5636  139.3833  165.4093 C.2     1  UNL1        0.1795
      8 O         138.0622  138.1337  166.0705 O.2     1  UNL1       -0.2911
      9 C         138.3454  139.5937  163.9402 C.3     1  UNL1        0.1092
     10 C         138.8467  140.8433  163.2789 C.3     1  UNL1        0.1436
     11 C         138.1272  139.8042  162.4711 C.3     1  UNL1        0.0620
     12 C         137.9091  140.0146  161.0021 C.3     1  UNL1        0.0985
     13 N         138.4104  141.2642  160.3409 N.am    1  UNL1       -0.2640
     14 C         138.1922  141.4746  158.8718 C.2     1  UNL1        0.3039
     15 O         138.6935  142.7241  158.2105 O.2     1  UNL1       -0.2526
     16 N         137.4727  140.4355  158.0640 N.am    1  UNL1       -0.2901
     17 C         139.1299  142.3033  161.1486 C.3     1  UNL1        0.0985
     18 C         139.3480  142.0928  162.6176 C.3     1  UNL1        0.0620
     19 O         139.5662  141.8824  164.0868 O.3     1  UNL1       -0.4819
     20 H         137.1437  139.6154  158.4980 H       1  UNL1        0.1509
     21 C         140.6571  140.8302  171.4320 C.3     1  UNL1        0.1816
     22 S         140.4389  141.0407  169.9629 S.O2    1  UNL1        0.0105
     23 O         140.6881  139.5821  169.7170 O.2     1  UNL1       -0.1686
     24 O         140.1897  142.4992  170.2089 O.2     1  UNL1       -0.1686
     25 C         137.2545  140.6459  156.5949 C.3     1  UNL1        0.0774
     26 C         136.8032  141.5171  155.4603 C.3     1  UNL1        0.0259
     27 C         137.3280  140.1392  155.1850 C.3     1  UNL1        0.0420
     28 C         137.6734  139.0511  154.2120 C.ar    1  UNL1       -0.0208
     29 C         139.0909  138.8772  153.7535 C.ar    1  UNL1       -0.0042
     30 C         139.4364  137.7891  152.7805 C.ar    1  UNL1       -0.0003
     31 C         138.3642  136.8748  152.2661 C.ar    1  UNL1       -0.0000
     32 C         136.9466  137.0486  152.7247 C.ar    1  UNL1       -0.0003
     33 C         136.6012  138.1368  153.6977 C.ar    1  UNL1       -0.0042
@<TRIPOS>BOND
     1    21    22    1
     2    22    23    2
     3    22    24    2
     4    22     1    1
     5     1     2   ar
     6     2     3   ar
     7     3     4   ar
     8     4     5   ar
     9     5     6   ar
    10     5     7    1
    11     7     8    2
    12     7     9    1
    13     9    10    1
    14    10    11    1
    15    11    12    1
    16    12    13    1
    17    13    14   am
    18    14    15    2
    19    14    16   am
    20    25    16    1
    21    25    26    1
    22    26    27    1
    23    27    28    1
    24    28    29   ar
    25    29    30   ar
    26    30    31   ar
    27    31    32   ar
    28    32    33   ar
    29    13    17    1
    30    17    18    1
    31    10    19    1
    32     6     1   ar
    33    18    10    1
    34    19     4    1
    35    27    25    1
    36    33    28   ar
    37    16    20    1
@<TRIPOS>MOLECULE
*****
 33 37 0 0 0
SMALL
GASTEIGER

@<TRIPOS>ATOM
      1 C         141.8457  135.3144  154.5794 C.ar    1  UNL1        0.1060
      2 C         143.1379  135.0386  155.2894 C.ar    1  UNL1        0.0215
      3 C         143.4360  135.7156  156.5943 C.ar    1  UNL1        0.0383
      4 C         142.4419  136.6684  157.1892 C.ar    1  UNL1        0.1410
      5 C         141.1497  136.9443  156.4792 C.ar    1  UNL1        0.0700
      6 C         140.8516  136.2672  155.1742 C.ar    1  UNL1        0.0242
      7 C         140.1556  137.8971  157.0740 C.2     1  UNL1        0.1795
      8 O         138.8635  138.1729  156.3640 O.2     1  UNL1       -0.2911
      9 C         140.4537  138.5742  158.3790 C.3     1  UNL1        0.1092
     10 C         141.7459  138.2983  159.0890 C.3     1  UNL1        0.1436
     11 C         140.7518  139.2512  159.6838 C.3     1  UNL1        0.0620
     12 C         141.0500  139.9281  160.9887 C.3     1  UNL1        0.0985
     13 N         142.3421  139.6523  161.6988 N.am    1  UNL1       -0.2640
     14 C         142.6402  140.3294  163.0037 C.2     1  UNL1        0.3039
     15 O         143.9324  140.0535  163.7137 O.2     1  UNL1       -0.2526
     16 N         141.6462  141.2822  163.5985 N.am    1  UNL1       -0.2901
     17 C         143.3362  138.6995  161.1039 C.3     1  UNL1        0.0985
     18 C         143.0381  138.0225  159.7990 C.3     1  UNL1        0.0620
     19 O         142.7400  137.3454  158.4941 O.3     1  UNL1       -0.4819
     20 H         140.7980  141.4632  163.1325 H       1  UNL1        0.1509
     21 C         141.2495  133.9604  151.9695 C.3     1  UNL1        0.1816
     22 S         141.5476  134.6374  153.2745 S.O2    1  UNL1        0.0105
     23 O         142.0839  133.3476  153.8211 O.2     1  UNL1       -0.1686
     24 O         141.0113  135.9272  152.7279 O.2     1  UNL1       -0.1686
     25 C         141.9442  141.9593  164.9035 C.3     1  UNL1        0.0774
     26 C         142.7479  142.9408  165.7039 C.3     1  UNL1        0.0259
     27 C         141.6569  142.1503  166.3633 C.3     1  UNL1        0.0420
     28 C         140.8611  141.8043  167.5867 C.ar    1  UNL1       -0.0208
     29 C         140.1025  140.5116  167.6472 C.ar    1  UNL1       -0.0042
     30 C         139.3068  140.1655  168.8707 C.ar    1  UNL1       -0.0003
     31 C         139.2695  141.1121  170.0337 C.ar    1  UNL1       -0.0000
     32 C         140.0281  142.4048  169.9733 C.ar    1  UNL1       -0.0003
     33 C         140.8239  142.7508  168.7497 C.ar    1  UNL1       -0.0042
@<TRIPOS>BOND
     1    21    22    1
     2    22    23    2
     3    22    24    2
     4    22     1    1
     5     1     2   ar
     6     2     3   ar
     7     3     4   ar
     8     4     5   ar
     9     5     6   ar
    10     5     7    1
    11     7     8    2
    12     7     9    1
    13     9    10    1
    14    10    11    1
    15    11    12    1
    16    12    13    1
    17    13    14   am
    18    14    15    2
    19    14    16   am
    20    25    16    1
    21    25    26    1
    22    26    27    1
    23    27    28    1
    24    28    29   ar
    25    29    30   ar
    26    30    31   ar
    27    31    32   ar
    28    32    33   ar
    29    13    17    1
    30    17    18    1
    31    10    19    1
    32     6     1   ar
    33    18    10    1
    34    19     4    1
    35    27    25    1
    36    33    28   ar
    37    16    20    1
@<TRIPOS>MOLECULE
*****
 33 37 0 0 0
SMALL
GASTEIGER

@<TRIPOS>ATOM
      1 C         142.1843  134.5365  154.5094 C.ar    1  UNL1        0.1060
      2 C         143.4769  134.7403  155.2426 C.ar    1  UNL1        0.0215
      3 C         143.5538  135.7315  156.3658 C.ar    1  UNL1        0.0383
      4 C         142.3380  136.5188  156.7559 C.ar    1  UNL1        0.1410
      5 C         141.0454  136.3149  156.0227 C.ar    1  UNL1        0.0700
      6 C         140.9686  135.3237  154.8994 C.ar    1  UNL1        0.0242
      7 C         139.8297  137.1022  156.4127 C.2     1  UNL1        0.1795
      8 O         138.5371  136.8983  155.6795 O.2     1  UNL1       -0.2911
      9 C         139.9065  138.0934  157.5360 C.3     1  UNL1        0.1092
     10 C         141.1991  138.2972  158.2692 C.3     1  UNL1        0.1436
     11 C         139.9833  139.0845  158.6592 C.3     1  UNL1        0.0620
     12 C         140.0602  140.0756  159.7825 C.3     1  UNL1        0.0985
     13 N         141.3528  140.2795  160.5157 N.am    1  UNL1       -0.2640
     14 C         141.4296  141.2707  161.6390 C.2     1  UNL1        0.3039
     15 O         142.7222  141.4745  162.3722 O.2     1  UNL1       -0.2526
     16 N         140.2139  142.0579  162.0290 N.am    1  UNL1       -0.2901
     17 C         142.5685  139.4922  160.1257 C.3     1  UNL1        0.0985
     18 C         142.4917  138.5011  159.0024 C.3     1  UNL1        0.0620
     19 O         142.4149  137.5099  157.8791 O.3     1  UNL1       -0.4819
     20 H         139.3655  141.9241  161.5478 H       1  UNL1        0.1509
     21 C         142.0306  132.5541  152.2628 C.3     1  UNL1        0.1816
     22 S         142.1075  133.5454  153.3861 S.O2    1  UNL1        0.0105
     23 O         141.2434  134.4934  152.6087 O.2     1  UNL1       -0.1686
     24 O         142.9716  132.5973  154.1636 O.2     1  UNL1       -0.1686
     25 C         140.2907  143.0491  163.1523 C.3     1  UNL1        0.0774
     26 C         140.0788  144.4390  163.6751 C.3     1  UNL1        0.0259
     27 C         140.6356  143.3760  164.5750 C.3     1  UNL1        0.0420
     28 C         141.1563  142.9510  165.9160 C.ar    1  UNL1       -0.0208
     29 C         142.5919  142.5439  166.0686 C.ar    1  UNL1       -0.0042
     30 C         143.1125  142.1189  167.4095 C.ar    1  UNL1       -0.0003
     31 C         142.1975  142.1009  168.5981 C.ar    1  UNL1       -0.0000
     32 C         140.7619  142.5080  168.4455 C.ar    1  UNL1       -0.0003
     33 C         140.2413  142.9330  167.1044 C.ar    1  UNL1       -0.0042
@<TRIPOS>BOND
     1    21    22    1
     2    22    23    2
     3    22    24    2
     4    22     1    1
     5     1     2   ar
     6     2     3   ar
     7     3     4   ar
     8     4     5   ar
     9     5     6   ar
    10     5     7    1
    11     7     8    2
    12     7     9    1
    13     9    10    1
    14    10    11    1
    15    11    12    1
    16    12    13    1
    17    13    14   am
    18    14    15    2
    19    14    16   am
    20    25    16    1
    21    25    26    1
    22    26    27    1
    23    27    28    1
    24    28    29   ar
    25    29    30   ar
    26    30    31   ar
    27    31    32   ar
    28    32    33   ar
    29    13    17    1
    30    17    18    1
    31    10    19    1
    32     6     1   ar
    33    18    10    1
    34    19     4    1
    35    27    25    1
    36    33    28   ar
    37    16    20    1
