@<TRIPOS>MOLECULE
*****
 30 33 0 0 0
SMALL
GASTEIGER

@<TRIPOS>ATOM
      1 O         139.6417  145.5022  160.7134 O.2     1  UNL1       -0.2665
      2 C         140.5517  145.1567  159.5721 C.ar    1  UNL1        0.2679
      3 C         140.3217  145.7628  158.2195 C.ar    1  UNL1        0.0980
      4 C         141.2317  145.4173  157.0782 C.ar    1  UNL1        0.1453
      5 C         142.3717  144.4656  157.2895 C.ar    1  UNL1        0.0561
      6 C         142.6016  143.8595  158.6422 C.ar    1  UNL1        0.0860
      7 N         141.6917  144.2050  159.7834 N.ar    1  UNL1       -0.2729
      8 C         141.9217  143.5988  161.1361 C.ar    1  UNL1        0.0671
      9 C         142.6352  144.3824  162.1976 C.ar    1  UNL1        0.0207
     10 C         142.8652  143.7763  163.5503 C.ar    1  UNL1        0.0384
     11 C         142.3818  142.3865  163.8414 C.ar    1  UNL1        0.1387
     12 C         141.6683  141.6028  162.7799 C.ar    1  UNL1        0.0384
     13 C         141.4382  142.2090  161.4272 C.ar    1  UNL1        0.0207
     14 O         142.6118  141.7803  165.1941 O.3     1  UNL1       -0.4740
     15 C         141.5780  140.8756  165.7962 C.3     1  UNL1        0.2226
     16 C         140.3001  141.4493  166.3326 C.3     1  UNL1        0.1200
     17 N         139.4423  142.3162  165.4592 N.3     1  UNL1       -0.2696
     18 C         139.5847  143.8084  165.5124 C.3     1  UNL1        0.0722
     19 C         138.7269  144.6753  164.6390 C.3     1  UNL1        0.0174
     20 C         137.7267  144.0498  163.7124 C.3     1  UNL1        0.0029
     21 C         137.5844  142.5575  163.6592 C.3     1  UNL1        0.0174
     22 C         138.4422  141.6907  164.5326 C.3     1  UNL1        0.0722
     23 O         141.0016  146.0235  155.7255 O.3     1  UNL1       -0.4704
     24 C         139.6428  146.5407  155.3567 C.3     1  UNL1        0.2320
     25 C         139.3786  148.0172  155.3503 C.ar    1  UNL1        0.0212
     26 C         139.8623  148.8607  154.2081 C.ar    1  UNL1       -0.0007
     27 C         139.5981  150.3373  154.2017 C.ar    1  UNL1       -0.0002
     28 C         138.8502  150.9703  155.3374 C.ar    1  UNL1       -0.0000
     29 C         138.3666  150.1268  156.4796 C.ar    1  UNL1       -0.0002
     30 C         138.6308  148.6503  156.4861 C.ar    1  UNL1       -0.0007
@<TRIPOS>BOND
     1     1     2    2
     2     2     3   ar
     3     3     4   ar
     4     4    23    1
     5    23    24    1
     6    24    25    1
     7    25    26   ar
     8    26    27   ar
     9    27    28   ar
    10    28    29   ar
    11    29    30   ar
    12     4     5   ar
    13     5     6   ar
    14     6     7   ar
    15     7     8    1
    16     8     9   ar
    17     9    10   ar
    18    10    11   ar
    19    11    14    1
    20    14    15    1
    21    15    16    1
    22    16    17    1
    23    17    18    1
    24    18    19    1
    25    19    20    1
    26    20    21    1
    27    21    22    1
    28    11    12   ar
    29    12    13   ar
    30     7     2   ar
    31    13     8   ar
    32    30    25   ar
    33    22    17    1
@<TRIPOS>MOLECULE
*****
 30 33 0 0 0
SMALL
GASTEIGER

@<TRIPOS>ATOM
      1 O         138.8672  139.0450  159.4814 O.2     1  UNL1       -0.2665
      2 C         140.2930  138.5873  159.5685 C.ar    1  UNL1        0.2679
      3 C         141.0633  138.2907  158.3161 C.ar    1  UNL1        0.0980
      4 C         142.4892  137.8331  158.4032 C.ar    1  UNL1        0.1453
      5 C         143.1447  137.6720  159.7427 C.ar    1  UNL1        0.0561
      6 C         142.3743  137.9686  160.9951 C.ar    1  UNL1        0.0860
      7 N         140.9485  138.4263  160.9080 N.ar    1  UNL1       -0.2729
      8 C         140.1782  138.7229  162.1605 C.ar    1  UNL1        0.0671
      9 C         139.6501  137.5979  163.0004 C.ar    1  UNL1        0.0207
     10 C         138.8798  137.8944  164.2528 C.ar    1  UNL1        0.0384
     11 C         138.6375  139.3161  164.6655 C.ar    1  UNL1        0.1387
     12 C         139.1656  140.4412  163.8256 C.ar    1  UNL1        0.0384
     13 C         139.9360  140.1445  162.5731 C.ar    1  UNL1        0.0207
     14 O         137.8672  139.6126  165.9179 O.3     1  UNL1       -0.4740
     15 C         138.3982  139.1671  167.2482 C.3     1  UNL1        0.2226
     16 C         139.4682  139.9640  167.9337 C.3     1  UNL1        0.1200
     17 N         140.6363  140.4827  167.1486 N.3     1  UNL1       -0.2696
     18 C         141.7062  139.5394  166.6844 C.3     1  UNL1        0.0722
     19 C         142.8743  140.0581  165.8992 C.3     1  UNL1        0.0174
     20 C         142.9726  141.5200  165.5783 C.3     1  UNL1        0.0029
     21 C         141.9027  142.4634  166.0425 C.3     1  UNL1        0.0174
     22 C         140.7346  141.9447  166.8277 C.3     1  UNL1        0.0722
     23 O         143.2595  137.5364  157.1507 O.3     1  UNL1       -0.4704
     24 C         142.6215  136.7454  156.0475 C.3     1  UNL1        0.2320
     25 C         142.5826  135.2479  156.1241 C.ar    1  UNL1        0.0212
     26 C         143.5631  134.5155  156.9913 C.ar    1  UNL1       -0.0007
     27 C         143.5242  133.0179  157.0679 C.ar    1  UNL1       -0.0002
     28 C         142.5047  132.2528  156.2772 C.ar    1  UNL1       -0.0000
     29 C         141.5242  132.9851  155.4099 C.ar    1  UNL1       -0.0002
     30 C         141.5631  134.4826  155.3333 C.ar    1  UNL1       -0.0007
@<TRIPOS>BOND
     1     1     2    2
     2     2     3   ar
     3     3     4   ar
     4     4    23    1
     5    23    24    1
     6    24    25    1
     7    25    26   ar
     8    26    27   ar
     9    27    28   ar
    10    28    29   ar
    11    29    30   ar
    12     4     5   ar
    13     5     6   ar
    14     6     7   ar
    15     7     8    1
    16     8     9   ar
    17     9    10   ar
    18    10    11   ar
    19    11    14    1
    20    14    15    1
    21    15    16    1
    22    16    17    1
    23    17    18    1
    24    18    19    1
    25    19    20    1
    26    20    21    1
    27    21    22    1
    28    11    12   ar
    29    12    13   ar
    30     7     2   ar
    31    13     8   ar
    32    30    25   ar
    33    22    17    1
@<TRIPOS>MOLECULE
*****
 30 33 0 0 0
SMALL
GASTEIGER

@<TRIPOS>ATOM
      1 O         143.1293  138.0293  161.8600 O.2     1  UNL1       -0.2665
      2 C         142.1255  138.1597  160.7530 C.ar    1  UNL1        0.2679
      3 C         142.5502  137.9610  159.3282 C.ar    1  UNL1        0.0980
      4 C         141.5464  138.0914  158.2213 C.ar    1  UNL1        0.1453
      5 C         140.1179  138.4205  158.5391 C.ar    1  UNL1        0.0561
      6 C         139.6933  138.6192  159.9639 C.ar    1  UNL1        0.0860
      7 N         140.6970  138.4888  161.0708 N.ar    1  UNL1       -0.2729
      8 C         140.2723  138.6875  162.4957 C.ar    1  UNL1        0.0671
      9 C         140.0289  140.0718  163.0196 C.ar    1  UNL1        0.0207
     10 C         139.6042  140.2706  164.4444 C.ar    1  UNL1        0.0384
     11 C         139.4228  139.0851  165.3454 C.ar    1  UNL1        0.1387
     12 C         139.6662  137.7008  164.8214 C.ar    1  UNL1        0.0384
     13 C         140.0909  137.5020  163.3966 C.ar    1  UNL1        0.0207
     14 O         138.9980  139.2838  166.7701 O.3     1  UNL1       -0.4740
     15 C         139.7770  140.2030  167.6637 C.3     1  UNL1        0.2226
     16 C         141.2237  139.9258  167.9467 C.3     1  UNL1        0.1200
     17 N         142.2388  140.0447  166.8488 N.3     1  UNL1       -0.2696
     18 C         142.9123  138.8158  166.3138 C.3     1  UNL1        0.0722
     19 C         143.9275  138.9346  165.2159 C.3     1  UNL1        0.0174
     20 C         144.2692  140.2824  164.6531 C.3     1  UNL1        0.0029
     21 C         143.5957  141.5113  165.1881 C.3     1  UNL1        0.0174
     22 C         142.5805  141.3925  166.2860 C.3     1  UNL1        0.0722
     23 O         141.9712  137.8926  156.7964 O.3     1  UNL1       -0.4704
     24 C         143.0716  136.9271  156.4696 C.3     1  UNL1        0.2320
     25 C         142.7693  135.4645  156.3305 C.ar    1  UNL1        0.0212
     26 C         143.5075  134.4631  157.1685 C.ar    1  UNL1       -0.0007
     27 C         143.2052  133.0004  157.0294 C.ar    1  UNL1       -0.0002
     28 C         142.1647  132.5392  156.0524 C.ar    1  UNL1       -0.0000
     29 C         141.4265  133.5406  155.2144 C.ar    1  UNL1       -0.0002
     30 C         141.7288  135.0032  155.3535 C.ar    1  UNL1       -0.0007
@<TRIPOS>BOND
     1     1     2    2
     2     2     3   ar
     3     3     4   ar
     4     4    23    1
     5    23    24    1
     6    24    25    1
     7    25    26   ar
     8    26    27   ar
     9    27    28   ar
    10    28    29   ar
    11    29    30   ar
    12     4     5   ar
    13     5     6   ar
    14     6     7   ar
    15     7     8    1
    16     8     9   ar
    17     9    10   ar
    18    10    11   ar
    19    11    14    1
    20    14    15    1
    21    15    16    1
    22    16    17    1
    23    17    18    1
    24    18    19    1
    25    19    20    1
    26    20    21    1
    27    21    22    1
    28    11    12   ar
    29    12    13   ar
    30     7     2   ar
    31    13     8   ar
    32    30    25   ar
    33    22    17    1
@<TRIPOS>MOLECULE
*****
 30 33 0 0 0
SMALL
GASTEIGER

@<TRIPOS>ATOM
      1 O         143.1305  138.0174  162.3601 O.2     1  UNL1       -0.2665
      2 C         142.2863  138.1538  161.1278 C.ar    1  UNL1        0.2679
      3 C         142.9095  138.0058  159.7715 C.ar    1  UNL1        0.0980
      4 C         142.0653  138.1422  158.5391 C.ar    1  UNL1        0.1453
      5 C         140.5977  138.4266  158.6631 C.ar    1  UNL1        0.0561
      6 C         139.9745  138.5746  160.0194 C.ar    1  UNL1        0.0860
      7 N         140.8187  138.4382  161.2517 N.ar    1  UNL1       -0.2729
      8 C         140.1954  138.5861  162.6081 C.ar    1  UNL1        0.0671
      9 C         140.1624  137.4190  163.5497 C.ar    1  UNL1        0.0207
     10 C         139.5391  137.5669  164.9060 C.ar    1  UNL1        0.0384
     11 C         138.9487  138.8821  165.3207 C.ar    1  UNL1        0.1387
     12 C         138.9818  140.0492  164.3791 C.ar    1  UNL1        0.0384
     13 C         139.6051  139.9012  163.0228 C.ar    1  UNL1        0.0207
     14 O         138.3255  139.0300  166.6770 O.3     1  UNL1       -0.4740
     15 C         139.0332  139.8075  167.7469 C.3     1  UNL1        0.2226
     16 C         140.5300  139.9039  167.7382 C.3     1  UNL1        0.1200
     17 N         141.2181  140.9617  168.5491 N.3     1  UNL1       -0.2696
     18 C         140.4214  142.0784  169.1559 C.3     1  UNL1        0.0722
     19 C         141.1096  143.1362  169.9668 C.3     1  UNL1        0.0174
     20 C         142.5944  143.0773  170.1710 C.3     1  UNL1        0.0029
     21 C         143.3912  141.9606  169.5641 C.3     1  UNL1        0.0174
     22 C         142.7031  140.9028  168.7532 C.3     1  UNL1        0.0722
     23 O         142.6886  137.9942  157.1828 O.3     1  UNL1       -0.4704
     24 C         142.0157  137.1574  156.1354 C.3     1  UNL1        0.2320
     25 C         142.1597  135.6646  156.1615 C.ar    1  UNL1        0.0212
     26 C         143.1739  135.0245  157.0624 C.ar    1  UNL1       -0.0007
     27 C         143.3178  133.5316  157.0885 C.ar    1  UNL1       -0.0002
     28 C         142.4476  132.6789  156.2136 C.ar    1  UNL1       -0.0000
     29 C         141.4333  133.3190  155.3127 C.ar    1  UNL1       -0.0002
     30 C         141.2894  134.8118  155.2866 C.ar    1  UNL1       -0.0007
@<TRIPOS>BOND
     1     1     2    2
     2     2     3   ar
     3     3     4   ar
     4     4    23    1
     5    23    24    1
     6    24    25    1
     7    25    26   ar
     8    26    27   ar
     9    27    28   ar
    10    28    29   ar
    11    29    30   ar
    12     4     5   ar
    13     5     6   ar
    14     6     7   ar
    15     7     8    1
    16     8     9   ar
    17     9    10   ar
    18    10    11   ar
    19    11    14    1
    20    14    15    1
    21    15    16    1
    22    16    17    1
    23    17    18    1
    24    18    19    1
    25    19    20    1
    26    20    21    1
    27    21    22    1
    28    11    12   ar
    29    12    13   ar
    30     7     2   ar
    31    13     8   ar
    32    30    25   ar
    33    22    17    1
@<TRIPOS>MOLECULE
*****
 30 33 0 0 0
SMALL
GASTEIGER

@<TRIPOS>ATOM
      1 O         142.4847  138.7922  160.1071 O.2     1  UNL1       -0.2665
      2 C         141.8631  138.2471  158.8556 C.ar    1  UNL1        0.2679
      3 C         142.7051  137.5013  157.8633 C.ar    1  UNL1        0.0980
      4 C         142.0834  136.9562  156.6118 C.ar    1  UNL1        0.1453
      5 C         140.6197  137.1568  156.3525 C.ar    1  UNL1        0.0561
      6 C         139.7777  137.9026  157.3449 C.ar    1  UNL1        0.0860
      7 N         140.3993  138.4478  158.5964 N.ar    1  UNL1       -0.2729
      8 C         139.5572  139.1936  159.5887 C.ar    1  UNL1        0.0671
      9 C         139.4308  140.6852  159.4940 C.ar    1  UNL1        0.0207
     10 C         138.5888  141.4311  160.4863 C.ar    1  UNL1        0.0384
     11 C         137.8731  140.6852  161.5733 C.ar    1  UNL1        0.1387
     12 C         137.9994  139.1936  161.6680 C.ar    1  UNL1        0.0384
     13 C         138.8416  138.4478  160.6757 C.ar    1  UNL1        0.0207
     14 O         137.0310  141.4311  162.5656 O.3     1  UNL1       -0.4740
     15 C         137.6699  142.4092  163.5063 C.3     1  UNL1        0.2226
     16 C         138.3030  141.9240  164.7767 C.3     1  UNL1        0.1200
     17 N         138.9398  140.5669  164.8266 N.3     1  UNL1       -0.2696
     18 C         140.3282  140.3699  164.2943 C.3     1  UNL1        0.0722
     19 C         140.9651  139.0127  164.3442 C.3     1  UNL1        0.0174
     20 C         140.2135  137.8525  164.9264 C.3     1  UNL1        0.0029
     21 C         138.8250  138.0494  165.4587 C.3     1  UNL1        0.0174
     22 C         138.1881  139.4066  165.4088 C.3     1  UNL1        0.0722
     23 O         142.9255  136.2103  155.6194 O.3     1  UNL1       -0.4704
     24 C         143.8224  135.1002  156.0812 C.3     1  UNL1        0.2320
     25 C         143.3893  133.6725  155.9261 C.ar    1  UNL1        0.0212
     26 C         141.9861  133.3563  155.5008 C.ar    1  UNL1       -0.0007
     27 C         141.5530  131.9285  155.3458 C.ar    1  UNL1       -0.0002
     28 C         142.5233  130.8170  155.6160 C.ar    1  UNL1       -0.0000
     29 C         143.9266  131.1331  156.0413 C.ar    1  UNL1       -0.0002
     30 C         144.3596  132.5608  156.1963 C.ar    1  UNL1       -0.0007
@<TRIPOS>BOND
     1     1     2    2
     2     2     3   ar
     3     3     4   ar
     4     4    23    1
     5    23    24    1
     6    24    25    1
     7    25    26   ar
     8    26    27   ar
     9    27    28   ar
    10    28    29   ar
    11    29    30   ar
    12     4     5   ar
    13     5     6   ar
    14     6     7   ar
    15     7     8    1
    16     8     9   ar
    17     9    10   ar
    18    10    11   ar
    19    11    14    1
    20    14    15    1
    21    15    16    1
    22    16    17    1
    23    17    18    1
    24    18    19    1
    25    19    20    1
    26    20    21    1
    27    21    22    1
    28    11    12   ar
    29    12    13   ar
    30     7     2   ar
    31    13     8   ar
    32    30    25   ar
    33    22    17    1
@<TRIPOS>MOLECULE
*****
 30 33 0 0 0
SMALL
GASTEIGER

@<TRIPOS>ATOM
      1 O         139.5128  145.9900  161.3910 O.2     1  UNL1       -0.2665
      2 C         140.3438  145.4113  160.2844 C.ar    1  UNL1        0.2679
      3 C         140.1510  145.8861  158.8747 C.ar    1  UNL1        0.0980
      4 C         140.9820  145.3074  157.7681 C.ar    1  UNL1        0.1453
      5 C         142.0059  144.2541  158.0713 C.ar    1  UNL1        0.0561
      6 C         142.1988  143.7793  159.4810 C.ar    1  UNL1        0.0860
      7 N         141.3677  144.3580  160.5876 N.ar    1  UNL1       -0.2729
      8 C         141.5607  143.8832  161.9974 C.ar    1  UNL1        0.0671
      9 C         142.5339  144.5841  162.8982 C.ar    1  UNL1        0.0207
     10 C         142.7268  144.1093  164.3080 C.ar    1  UNL1        0.0384
     11 C         141.9465  142.9336  164.8169 C.ar    1  UNL1        0.1387
     12 C         140.9733  142.2327  163.9160 C.ar    1  UNL1        0.0384
     13 C         140.7804  142.7075  162.5062 C.ar    1  UNL1        0.0207
     14 O         142.1395  142.4589  166.2266 O.3     1  UNL1       -0.4740
     15 C         142.9599  141.2332  166.4996 C.3     1  UNL1        0.2226
     16 C         142.3035  139.9951  167.0346 C.3     1  UNL1        0.1200
     17 N         141.1537  139.3769  166.2959 N.3     1  UNL1       -0.2696
     18 C         139.7446  139.7001  166.6959 C.3     1  UNL1        0.0722
     19 C         138.5947  139.0818  165.9572 C.3     1  UNL1        0.0174
     20 C         138.8540  138.1404  164.8186 C.3     1  UNL1        0.0029
     21 C         140.2631  137.8171  164.4186 C.3     1  UNL1        0.0174
     22 C         141.4130  138.4354  165.1573 C.3     1  UNL1        0.0722
     23 O         140.7891  145.7822  156.3583 O.3     1  UNL1       -0.4704
     24 C         139.4586  146.3219  155.9242 C.3     1  UNL1        0.2320
     25 C         139.3062  147.7816  155.6143 C.ar    1  UNL1        0.0212
     26 C         138.5827  148.6803  156.5728 C.ar    1  UNL1       -0.0007
     27 C         138.4304  150.1401  156.2628 C.ar    1  UNL1       -0.0002
     28 C         139.0016  150.7010  154.9944 C.ar    1  UNL1       -0.0000
     29 C         139.7251  149.8023  154.0358 C.ar    1  UNL1       -0.0002
     30 C         139.8774  148.3426  154.3457 C.ar    1  UNL1       -0.0007
@<TRIPOS>BOND
     1     1     2    2
     2     2     3   ar
     3     3     4   ar
     4     4    23    1
     5    23    24    1
     6    24    25    1
     7    25    26   ar
     8    26    27   ar
     9    27    28   ar
    10    28    29   ar
    11    29    30   ar
    12     4     5   ar
    13     5     6   ar
    14     6     7   ar
    15     7     8    1
    16     8     9   ar
    17     9    10   ar
    18    10    11   ar
    19    11    14    1
    20    14    15    1
    21    15    16    1
    22    16    17    1
    23    17    18    1
    24    18    19    1
    25    19    20    1
    26    20    21    1
    27    21    22    1
    28    11    12   ar
    29    12    13   ar
    30     7     2   ar
    31    13     8   ar
    32    30    25   ar
    33    22    17    1
@<TRIPOS>MOLECULE
*****
 30 33 0 0 0
SMALL
GASTEIGER

@<TRIPOS>ATOM
      1 O         137.6888  143.2315  162.3664 O.2     1  UNL1       -0.2665
      2 C         138.9755  143.2370  163.1375 C.ar    1  UNL1        0.2679
      3 C         138.9713  142.9300  164.6057 C.ar    1  UNL1        0.0980
      4 C         140.2579  142.9355  165.3768 C.ar    1  UNL1        0.1453
      5 C         141.5487  143.2481  164.6796 C.ar    1  UNL1        0.0561
      6 C         141.5529  143.5551  163.2114 C.ar    1  UNL1        0.0860
      7 N         140.2663  143.5496  162.4404 N.ar    1  UNL1       -0.2729
      8 C         140.2705  143.8566  160.9721 C.ar    1  UNL1        0.0671
      9 C         140.2931  145.2815  160.5039 C.ar    1  UNL1        0.0207
     10 C         140.2973  145.5886  159.0357 C.ar    1  UNL1        0.0384
     11 C         140.2790  144.4708  158.0356 C.ar    1  UNL1        0.1387
     12 C         140.2565  143.0459  158.5037 C.ar    1  UNL1        0.0384
     13 C         140.2522  142.7388  159.9720 C.ar    1  UNL1        0.0207
     14 O         140.2832  144.7779  156.5674 O.3     1  UNL1       -0.4740
     15 C         140.3250  146.2023  156.0992 C.3     1  UNL1        0.2226
     16 C         139.0488  146.9677  155.9112 C.3     1  UNL1        0.1200
     17 N         139.0877  148.3756  155.3951 N.3     1  UNL1       -0.2696
     18 C         139.7172  148.6700  154.0659 C.3     1  UNL1        0.0722
     19 C         139.7561  150.0779  153.5498 C.3     1  UNL1        0.0174
     20 C         139.1654  151.1914  154.3629 C.3     1  UNL1        0.0029
     21 C         138.5359  150.8970  155.6923 C.3     1  UNL1        0.0174
     22 C         138.4970  149.4891  156.2084 C.3     1  UNL1        0.0722
     23 O         140.2537  142.6284  166.8450 O.3     1  UNL1       -0.4704
     24 C         140.6205  141.2555  167.3252 C.3     1  UNL1        0.2320
     25 C         140.2410  140.0514  166.5151 C.ar    1  UNL1        0.0212
     26 C         141.2738  139.3523  165.6818 C.ar    1  UNL1       -0.0007
     27 C         140.8943  138.1481  164.8717 C.ar    1  UNL1       -0.0002
     28 C         139.4821  137.6433  164.8950 C.ar    1  UNL1       -0.0000
     29 C         138.4493  138.3424  165.7283 C.ar    1  UNL1       -0.0002
     30 C         138.8287  139.5465  166.5384 C.ar    1  UNL1       -0.0007
@<TRIPOS>BOND
     1     1     2    2
     2     2     3   ar
     3     3     4   ar
     4     4    23    1
     5    23    24    1
     6    24    25    1
     7    25    26   ar
     8    26    27   ar
     9    27    28   ar
    10    28    29   ar
    11    29    30   ar
    12     4     5   ar
    13     5     6   ar
    14     6     7   ar
    15     7     8    1
    16     8     9   ar
    17     9    10   ar
    18    10    11   ar
    19    11    14    1
    20    14    15    1
    21    15    16    1
    22    16    17    1
    23    17    18    1
    24    18    19    1
    25    19    20    1
    26    20    21    1
    27    21    22    1
    28    11    12   ar
    29    12    13   ar
    30     7     2   ar
    31    13     8   ar
    32    30    25   ar
    33    22    17    1
@<TRIPOS>MOLECULE
*****
 30 33 0 0 0
SMALL
GASTEIGER

@<TRIPOS>ATOM
      1 O         139.6136  145.5861  162.6219 O.2     1  UNL1       -0.2665
      2 C         139.8551  144.9348  161.2924 C.ar    1  UNL1        0.2679
      3 C         140.1353  145.7780  160.0840 C.ar    1  UNL1        0.0980
      4 C         140.3768  145.1267  158.7545 C.ar    1  UNL1        0.1453
      5 C         140.3380  143.6321  158.6334 C.ar    1  UNL1        0.0561
      6 C         140.0578  142.7889  159.8419 C.ar    1  UNL1        0.0860
      7 N         139.8163  143.4402  161.1713 N.ar    1  UNL1       -0.2729
      8 C         139.5361  142.5968  162.3798 C.ar    1  UNL1        0.0671
      9 C         138.1198  142.3214  162.7901 C.ar    1  UNL1        0.0207
     10 C         137.8396  141.4781  163.9985 C.ar    1  UNL1        0.0384
     11 C         138.9756  140.9102  164.7967 C.ar    1  UNL1        0.1387
     12 C         140.3919  141.1856  164.3864 C.ar    1  UNL1        0.0384
     13 C         140.6721  142.0290  163.1779 C.ar    1  UNL1        0.0207
     14 O         138.6953  140.0669  166.0051 O.3     1  UNL1       -0.4740
     15 C         138.2374  138.6481  165.8397 C.3     1  UNL1        0.2226
     16 C         139.1430  137.6374  165.2008 C.3     1  UNL1        0.1200
     17 N         139.5438  137.7920  163.7636 N.3     1  UNL1       -0.2696
     18 C         138.5017  138.0620  162.7192 C.3     1  UNL1        0.0722
     19 C         138.9025  138.2166  161.2820 C.3     1  UNL1        0.0174
     20 C         140.3456  138.1012  160.8893 C.3     1  UNL1        0.0029
     21 C         141.3878  137.8311  161.9338 C.3     1  UNL1        0.0174
     22 C         140.9870  137.6765  163.3709 C.3     1  UNL1        0.0722
     23 O         140.6570  145.9700  157.5460 O.3     1  UNL1       -0.4704
     24 C         139.5596  146.2659  156.5671 C.3     1  UNL1        0.2320
     25 C         139.3231  147.6744  156.1088 C.ar    1  UNL1        0.0212
     26 C         139.8057  148.1149  154.7586 C.ar    1  UNL1       -0.0007
     27 C         139.5691  149.5235  154.3003 C.ar    1  UNL1       -0.0002
     28 C         138.8499  150.4915  155.1922 C.ar    1  UNL1       -0.0000
     29 C         138.3672  150.0511  156.5424 C.ar    1  UNL1       -0.0002
     30 C         138.6038  148.6426  157.0007 C.ar    1  UNL1       -0.0007
@<TRIPOS>BOND
     1     1     2    2
     2     2     3   ar
     3     3     4   ar
     4     4    23    1
     5    23    24    1
     6    24    25    1
     7    25    26   ar
     8    26    27   ar
     9    27    28   ar
    10    28    29   ar
    11    29    30   ar
    12     4     5   ar
    13     5     6   ar
    14     6     7   ar
    15     7     8    1
    16     8     9   ar
    17     9    10   ar
    18    10    11   ar
    19    11    14    1
    20    14    15    1
    21    15    16    1
    22    16    17    1
    23    17    18    1
    24    18    19    1
    25    19    20    1
    26    20    21    1
    27    21    22    1
    28    11    12   ar
    29    12    13   ar
    30     7     2   ar
    31    13     8   ar
    32    30    25   ar
    33    22    17    1
@<TRIPOS>MOLECULE
*****
 30 33 0 0 0
SMALL
GASTEIGER

@<TRIPOS>ATOM
      1 O         140.7335  141.2135  164.9744 O.2     1  UNL1       -0.2665
      2 C         139.8090  140.3652  165.7964 C.ar    1  UNL1        0.2679
      3 C         139.6849  140.6042  167.2720 C.ar    1  UNL1        0.0980
      4 C         138.7604  139.7559  168.0941 C.ar    1  UNL1        0.1453
      5 C         137.9600  138.6687  167.4405 C.ar    1  UNL1        0.0561
      6 C         138.0841  138.4297  165.9649 C.ar    1  UNL1        0.0860
      7 N         139.0086  139.2780  165.1429 N.ar    1  UNL1       -0.2729
      8 C         139.1327  139.0389  163.6672 C.ar    1  UNL1        0.0671
      9 C         138.1574  139.6728  162.7201 C.ar    1  UNL1        0.0207
     10 C         138.2814  139.4338  161.2445 C.ar    1  UNL1        0.0384
     11 C         139.3808  138.5609  160.7159 C.ar    1  UNL1        0.1387
     12 C         140.3562  137.9271  161.6629 C.ar    1  UNL1        0.0384
     13 C         140.2321  138.1661  163.1386 C.ar    1  UNL1        0.0207
     14 O         139.5049  138.3220  159.2403 O.3     1  UNL1       -0.4740
     15 C         139.7942  139.4679  158.3166 C.3     1  UNL1        0.2226
     16 C         141.1968  139.9798  158.1732 C.3     1  UNL1        0.1200
     17 N         142.1175  139.9866  159.3574 N.3     1  UNL1       -0.2696
     18 C         142.0035  141.0686  160.3899 C.3     1  UNL1        0.0722
     19 C         142.9242  141.0754  161.5740 C.3     1  UNL1        0.0174
     20 C         143.9589  140.0002  161.7257 C.3     1  UNL1        0.0029
     21 C         144.0730  138.9180  160.6932 C.3     1  UNL1        0.0174
     22 C         143.1523  138.9112  159.5090 C.3     1  UNL1        0.0722
     23 O         138.6363  139.9949  169.5697 O.3     1  UNL1       -0.4704
     24 C         139.8450  139.8859  170.4514 C.3     1  UNL1        0.2320
     25 C         140.9754  140.8598  170.2982 C.ar    1  UNL1        0.0212
     26 C         142.3751  140.3588  170.0982 C.ar    1  UNL1       -0.0007
     27 C         143.5056  141.3329  169.9450 C.ar    1  UNL1       -0.0002
     28 C         143.2364  142.8077  169.9918 C.ar    1  UNL1       -0.0000
     29 C         141.8367  143.3087  170.1917 C.ar    1  UNL1       -0.0002
     30 C         140.7062  142.3348  170.3449 C.ar    1  UNL1       -0.0007
@<TRIPOS>BOND
     1     1     2    2
     2     2     3   ar
     3     3     4   ar
     4     4    23    1
     5    23    24    1
     6    24    25    1
     7    25    26   ar
     8    26    27   ar
     9    27    28   ar
    10    28    29   ar
    11    29    30   ar
    12     4     5   ar
    13     5     6   ar
    14     6     7   ar
    15     7     8    1
    16     8     9   ar
    17     9    10   ar
    18    10    11   ar
    19    11    14    1
    20    14    15    1
    21    15    16    1
    22    16    17    1
    23    17    18    1
    24    18    19    1
    25    19    20    1
    26    20    21    1
    27    21    22    1
    28    11    12   ar
    29    12    13   ar
    30     7     2   ar
    31    13     8   ar
    32    30    25   ar
    33    22    17    1
