@<TRIPOS>MOLECULE
*****
 24 25 0 0 0
SMALL
GASTEIGER

@<TRIPOS>ATOM
      1 C         140.0618  141.4217  165.7053 C.ar    1  UNL1        0.0874
      2 C         140.6539  142.1591  166.8696 C.ar    1  UNL1        0.0063
      3 C         140.4371  141.6547  168.2655 C.ar    1  UNL1        0.0115
      4 C         139.6282  140.4129  168.4971 C.ar    1  UNL1        0.1326
      5 O         139.4113  139.9086  169.8930 O.3     1  UNL1       -0.5057
      6 C         139.0361  139.6755  167.3328 C.ar    1  UNL1        0.0730
      7 C         139.2529  140.1799  165.9369 C.ar    1  UNL1        0.1410
      8 O         138.6608  139.4425  164.7725 O.3     1  UNL1       -0.5053
      9 H         139.7812  140.3692  170.6203 H       1  UNL1        0.2922
     10 H         138.1555  138.6668  164.9172 H       1  UNL1        0.2922
     11 N         139.4085  143.0189  163.7631 N.am    1  UNL1       -0.2536
     12 C         140.2786  141.9260  164.3093 C.2     1  UNL1        0.2557
     13 O         141.3656  141.3374  163.4596 O.2     1  UNL1       -0.2695
     14 C         139.6253  143.5233  162.3671 C.ar    1  UNL1        0.0733
     15 C         140.6240  144.6124  162.1099 C.ar    1  UNL1        0.0181
     16 C         140.8409  145.1168  160.7140 C.ar    1  UNL1        0.0220
     17 C         140.0589  144.5320  159.5753 C.ar    1  UNL1        0.0990
     18 N         139.0601  143.4429  159.8326 N.ar    1  UNL1       -0.2410
     19 C         138.8433  142.9385  161.2285 C.ar    1  UNL1        0.1137
     20 C         138.5668  144.8793  165.3696 C.3     1  UNL1        0.0237
     21 C         138.3215  143.6075  164.6128 C.3     1  UNL1        0.0986
     22 C         141.0292  142.3922  169.4298 C.3     1  UNL1        0.0253
     23 C         140.4014  143.6681  169.9071 C.3     1  UNL1        0.0048
     24 C         142.2490  141.8536  170.1168 C.3     1  UNL1        0.0048
@<TRIPOS>BOND
     1    20    21    1
     2    21    11    1
     3    11    12   am
     4    12    13    2
     5    12     1    1
     6     1     2   ar
     7     2     3   ar
     8     3    22    1
     9    22    23    1
    10    22    24    1
    11     3     4   ar
    12     4     5    1
    13     4     6   ar
    14     6     7   ar
    15     7     8    1
    16    11    14    1
    17    14    15   ar
    18    15    16   ar
    19    16    17   ar
    20    17    18   ar
    21    18    19   ar
    22     7     1   ar
    23    19    14   ar
    24     5     9    1
    25     8    10    1
@<TRIPOS>MOLECULE
*****
 24 25 0 0 0
SMALL
GASTEIGER

@<TRIPOS>ATOM
      1 C         141.1087  139.9151  166.2562 C.ar    1  UNL1        0.0874
      2 C         140.1546  140.4715  167.2712 C.ar    1  UNL1        0.0063
      3 C         140.4880  140.4003  168.7319 C.ar    1  UNL1        0.0115
      4 C         141.7755  139.7727  169.1776 C.ar    1  UNL1        0.1326
      5 O         142.1088  139.7016  170.6385 O.3     1  UNL1       -0.5057
      6 C         142.7295  139.2164  168.1627 C.ar    1  UNL1        0.0730
      7 C         142.3961  139.2876  166.7020 C.ar    1  UNL1        0.1410
      8 O         143.3502  138.7313  165.6869 O.3     1  UNL1       -0.5053
      9 H         141.5129  140.0491  171.2725 H       1  UNL1        0.2922
     10 H         144.1544  138.3393  165.9653 H       1  UNL1        0.2922
     11 N         140.0884  138.8332  164.1258 N.am    1  UNL1       -0.2536
     12 C         140.7753  139.9863  164.7954 C.2     1  UNL1        0.2557
     13 O         141.1289  141.2107  164.0043 O.2     1  UNL1       -0.2695
     14 C         139.7550  138.9043  162.6650 C.ar    1  UNL1        0.0733
     15 C         138.4051  139.3897  162.2266 C.ar    1  UNL1        0.0181
     16 C         138.0717  139.4609  160.7659 C.ar    1  UNL1        0.0220
     17 C         139.0882  139.0467  159.7436 C.ar    1  UNL1        0.0990
     18 N         140.4381  138.5614  160.1820 N.ar    1  UNL1       -0.2410
     19 C         140.7715  138.4902  161.6427 C.ar    1  UNL1        0.1137
     20 C         138.4258  137.5392  165.6462 C.3     1  UNL1        0.0237
     21 C         139.7348  137.6088  164.9170 C.3     1  UNL1        0.0986
     22 C         139.5339  140.9566  169.7470 C.3     1  UNL1        0.0253
     23 C         139.7686  142.3190  170.3292 C.3     1  UNL1        0.0048
     24 C         138.3453  140.1506  170.1798 C.3     1  UNL1        0.0048
@<TRIPOS>BOND
     1    20    21    1
     2    21    11    1
     3    11    12   am
     4    12    13    2
     5    12     1    1
     6     1     2   ar
     7     2     3   ar
     8     3    22    1
     9    22    23    1
    10    22    24    1
    11     3     4   ar
    12     4     5    1
    13     4     6   ar
    14     6     7   ar
    15     7     8    1
    16    11    14    1
    17    14    15   ar
    18    15    16   ar
    19    16    17   ar
    20    17    18   ar
    21    18    19   ar
    22     7     1   ar
    23    19    14   ar
    24     5     9    1
    25     8    10    1
@<TRIPOS>MOLECULE
*****
 24 25 0 0 0
SMALL
GASTEIGER

@<TRIPOS>ATOM
      1 C         141.3152  140.2674  166.3143 C.ar    1  UNL1        0.0874
      2 C         140.9902  141.2773  167.3746 C.ar    1  UNL1        0.0063
      3 C         141.6365  141.1815  168.7248 C.ar    1  UNL1        0.0115
      4 C         142.6079  140.0759  169.0146 C.ar    1  UNL1        0.1326
      5 O         143.2542  139.9802  170.3649 O.3     1  UNL1       -0.5057
      6 C         142.9329  139.0660  167.9543 C.ar    1  UNL1        0.0730
      7 C         142.2866  139.1618  166.6041 C.ar    1  UNL1        0.1410
      8 O         142.6116  138.1518  165.5436 O.3     1  UNL1       -0.5053
      9 H         143.0511  140.6110  171.0273 H       1  UNL1        0.2922
     10 H         143.2183  137.4612  165.7246 H       1  UNL1        0.2922
     11 N         139.5134  139.4705  164.6206 N.am    1  UNL1       -0.2536
     12 C         140.6689  140.3631  164.9640 C.2     1  UNL1        0.2557
     13 O         141.1781  141.3516  163.9572 O.2     1  UNL1       -0.2695
     14 C         138.8671  139.5662  163.2703 C.ar    1  UNL1        0.0733
     15 C         139.1350  138.5150  162.2344 C.ar    1  UNL1        0.0181
     16 C         138.4887  138.6106  160.8842 C.ar    1  UNL1        0.0220
     17 C         137.5745  139.7576  160.5699 C.ar    1  UNL1        0.0990
     18 N         137.3066  140.8088  161.6058 N.ar    1  UNL1       -0.2410
     19 C         137.9529  140.7131  162.9560 C.ar    1  UNL1        0.1137
     20 C         137.9067  138.8721  166.5727 C.3     1  UNL1        0.0237
     21 C         139.0042  138.4820  165.6274 C.3     1  UNL1        0.0986
     22 C         141.3115  142.1915  169.7853 C.3     1  UNL1        0.0253
     23 C         142.3510  143.1802  170.2231 C.3     1  UNL1        0.0048
     24 C         139.9470  142.2126  170.4078 C.3     1  UNL1        0.0048
@<TRIPOS>BOND
     1    20    21    1
     2    21    11    1
     3    11    12   am
     4    12    13    2
     5    12     1    1
     6     1     2   ar
     7     2     3   ar
     8     3    22    1
     9    22    23    1
    10    22    24    1
    11     3     4   ar
    12     4     5    1
    13     4     6   ar
    14     6     7   ar
    15     7     8    1
    16    11    14    1
    17    14    15   ar
    18    15    16   ar
    19    16    17   ar
    20    17    18   ar
    21    18    19   ar
    22     7     1   ar
    23    19    14   ar
    24     5     9    1
    25     8    10    1
@<TRIPOS>MOLECULE
*****
 24 25 0 0 0
SMALL
GASTEIGER

@<TRIPOS>ATOM
      1 C         139.3756  140.4148  166.6213 C.ar    1  UNL1        0.0874
      2 C         140.2479  141.4888  167.2006 C.ar    1  UNL1        0.0063
      3 C         140.3479  141.6527  168.6882 C.ar    1  UNL1        0.0115
      4 C         139.5756  140.7424  169.5966 C.ar    1  UNL1        0.1326
      5 O         139.6757  140.9063  171.0843 O.3     1  UNL1       -0.5057
      6 C         138.7034  139.6684  169.0173 C.ar    1  UNL1        0.0730
      7 C         138.6034  139.5046  167.5297 C.ar    1  UNL1        0.1410
      8 O         137.7311  138.4306  166.9503 O.3     1  UNL1       -0.5053
      9 H         140.2205  141.5772  171.4462 H       1  UNL1        0.2922
     10 H         137.2487  137.8620  167.5177 H       1  UNL1        0.2922
     11 N         140.1764  139.2846  164.4233 N.am    1  UNL1       -0.2536
     12 C         139.2756  140.2510  165.1336 C.2     1  UNL1        0.2557
     13 O         138.2747  141.0535  164.3563 O.2     1  UNL1       -0.2695
     14 C         140.0764  139.1208  162.9355 C.ar    1  UNL1        0.0733
     15 C         140.9330  139.9551  162.0299 C.ar    1  UNL1        0.0181
     16 C         140.8330  139.7913  160.5422 C.ar    1  UNL1        0.0220
     17 C         139.8764  138.7932  159.9603 C.ar    1  UNL1        0.0990
     18 N         139.0199  137.9589  160.8659 N.ar    1  UNL1       -0.2410
     19 C         139.1199  138.1227  162.3536 C.ar    1  UNL1        0.1137
     20 C         142.6347  138.8304  165.1308 C.3     1  UNL1        0.0237
     21 C         141.1773  138.4821  165.2005 C.3     1  UNL1        0.0986
     22 C         141.2202  142.7267  169.2676 C.3     1  UNL1        0.0253
     23 C         140.6007  143.9581  169.8593 C.3     1  UNL1        0.0048
     24 C         142.7118  142.5694  169.2553 C.3     1  UNL1        0.0048
@<TRIPOS>BOND
     1    20    21    1
     2    21    11    1
     3    11    12   am
     4    12    13    2
     5    12     1    1
     6     1     2   ar
     7     2     3   ar
     8     3    22    1
     9    22    23    1
    10    22    24    1
    11     3     4   ar
    12     4     5    1
    13     4     6   ar
    14     6     7   ar
    15     7     8    1
    16    11    14    1
    17    14    15   ar
    18    15    16   ar
    19    16    17   ar
    20    17    18   ar
    21    18    19   ar
    22     7     1   ar
    23    19    14   ar
    24     5     9    1
    25     8    10    1
@<TRIPOS>MOLECULE
*****
 24 25 0 0 0
SMALL
GASTEIGER

@<TRIPOS>ATOM
      1 C         139.7388  142.0930  165.6395 C.ar    1  UNL1        0.0874
      2 C         140.3685  142.8484  166.7721 C.ar    1  UNL1        0.0063
      3 C         140.5454  142.1881  168.1072 C.ar    1  UNL1        0.0115
      4 C         140.0927  140.7724  168.3097 C.ar    1  UNL1        0.1326
      5 O         140.2697  140.1121  169.6450 O.3     1  UNL1       -0.5057
      6 C         139.4630  140.0171  167.1771 C.ar    1  UNL1        0.0730
      7 C         139.2860  140.6774  165.8420 C.ar    1  UNL1        0.1410
      8 O         138.6563  139.9220  164.7092 O.3     1  UNL1       -0.5053
      9 H         140.6631  140.5840  170.3525 H       1  UNL1        0.2922
     10 H         138.3735  139.0377  164.8357 H       1  UNL1        0.2922
     11 N         140.7362  143.3868  163.6192 N.am    1  UNL1       -0.2536
     12 C         139.5618  142.7533  164.3042 C.2     1  UNL1        0.2557
     13 O         138.2102  142.7801  163.6541 O.2     1  UNL1       -0.2695
     14 C         140.5592  144.0471  162.2840 C.ar    1  UNL1        0.0733
     15 C         141.0462  143.3654  161.0398 C.ar    1  UNL1        0.0181
     16 C         140.8693  144.0257  159.7046 C.ar    1  UNL1        0.0220
     17 C         140.2052  145.3676  159.6137 C.ar    1  UNL1        0.0990
     18 N         139.7182  146.0492  160.8579 N.ar    1  UNL1       -0.2410
     19 C         139.8952  145.3890  162.1931 C.ar    1  UNL1        0.1137
     20 C         143.0559  144.4813  164.0333 C.3     1  UNL1        0.0237
     21 C         142.0877  143.3601  164.2694 C.3     1  UNL1        0.0986
     22 C         141.1752  142.9434  169.2399 C.3     1  UNL1        0.0253
     23 C         140.3751  143.9587  170.0009 C.3     1  UNL1        0.0048
     24 C         142.6049  142.6834  169.6116 C.3     1  UNL1        0.0048
@<TRIPOS>BOND
     1    20    21    1
     2    21    11    1
     3    11    12   am
     4    12    13    2
     5    12     1    1
     6     1     2   ar
     7     2     3   ar
     8     3    22    1
     9    22    23    1
    10    22    24    1
    11     3     4   ar
    12     4     5    1
    13     4     6   ar
    14     6     7   ar
    15     7     8    1
    16    11    14    1
    17    14    15   ar
    18    15    16   ar
    19    16    17   ar
    20    17    18   ar
    21    18    19   ar
    22     7     1   ar
    23    19    14   ar
    24     5     9    1
    25     8    10    1
@<TRIPOS>MOLECULE
*****
 24 25 0 0 0
SMALL
GASTEIGER

@<TRIPOS>ATOM
      1 C         140.2660  139.9802  166.1842 C.ar    1  UNL1        0.0874
      2 C         140.8271  140.7731  167.3272 C.ar    1  UNL1        0.0063
      3 C         140.1485  140.7443  168.6645 C.ar    1  UNL1        0.0115
      4 C         138.9087  139.9227  168.8589 C.ar    1  UNL1        0.1326
      5 O         138.2300  139.8939  170.1963 O.3     1  UNL1       -0.5057
      6 C         138.3475  139.1298  167.7160 C.ar    1  UNL1        0.0730
      7 C         139.0262  139.1585  166.3786 C.ar    1  UNL1        0.1410
      8 O         138.4650  138.3656  165.2356 O.3     1  UNL1       -0.5053
      9 H         138.5805  140.3892  170.9103 H       1  UNL1        0.2922
     10 H         137.6906  137.8524  165.3570 H       1  UNL1        0.2922
     11 N         142.0659  139.0566  164.5541 N.am    1  UNL1       -0.2536
     12 C         140.9446  140.0089  164.8468 C.2     1  UNL1        0.2557
     13 O         140.5019  140.9900  163.8020 O.2     1  UNL1       -0.2695
     14 C         142.7446  139.0853  163.2167 C.ar    1  UNL1        0.0733
     15 C         142.4165  138.0454  162.1867 C.ar    1  UNL1        0.0181
     16 C         143.0951  138.0741  160.8493 C.ar    1  UNL1        0.0220
     17 C         144.1018  139.1427  160.5419 C.ar    1  UNL1        0.0990
     18 N         144.4298  140.1827  161.5719 N.ar    1  UNL1       -0.2410
     19 C         143.7512  140.1540  162.9092 C.ar    1  UNL1        0.1137
     20 C         143.7220  138.3639  166.4323 C.3     1  UNL1        0.0237
     21 C         142.5087  138.0755  165.5988 C.3     1  UNL1        0.0986
     22 C         140.7096  141.5372  169.8076 C.3     1  UNL1        0.0253
     23 C         140.3127  142.9721  169.9913 C.3     1  UNL1        0.0048
     24 C         141.6675  140.8953  170.7668 C.3     1  UNL1        0.0048
@<TRIPOS>BOND
     1    20    21    1
     2    21    11    1
     3    11    12   am
     4    12    13    2
     5    12     1    1
     6     1     2   ar
     7     2     3   ar
     8     3    22    1
     9    22    23    1
    10    22    24    1
    11     3     4   ar
    12     4     5    1
    13     4     6   ar
    14     6     7   ar
    15     7     8    1
    16    11    14    1
    17    14    15   ar
    18    15    16   ar
    19    16    17   ar
    20    17    18   ar
    21    18    19   ar
    22     7     1   ar
    23    19    14   ar
    24     5     9    1
    25     8    10    1
@<TRIPOS>MOLECULE
*****
 24 25 0 0 0
SMALL
GASTEIGER

@<TRIPOS>ATOM
      1 C         139.3337  141.8100  164.7315 C.ar    1  UNL1        0.0874
      2 C         139.6931  140.4837  164.1301 C.ar    1  UNL1        0.0063
      3 C         138.8779  139.9266  163.0010 C.ar    1  UNL1        0.0115
      4 C         137.7032  140.6958  162.4732 C.ar    1  UNL1        0.1326
      5 O         136.8880  140.1386  161.3440 O.3     1  UNL1       -0.5057
      6 C         137.3438  142.0221  163.0746 C.ar    1  UNL1        0.0730
      7 C         138.1590  142.5792  164.2037 C.ar    1  UNL1        0.1410
      8 O         137.7995  143.9055  164.8052 O.3     1  UNL1       -0.5053
      9 H         137.1126  139.3101  160.9683 H       1  UNL1        0.2922
     10 H         137.0657  144.3860  164.4755 H       1  UNL1        0.2922
     11 N         140.4449  141.5190  167.0618 N.am    1  UNL1       -0.2536
     12 C         140.1489  142.3672  165.8607 C.2     1  UNL1        0.2557
     13 O         140.6680  143.7727  165.7887 O.2     1  UNL1       -0.2695
     14 C         141.2601  142.0761  168.1910 C.ar    1  UNL1        0.0733
     15 C         142.6921  141.6619  168.3579 C.ar    1  UNL1        0.0181
     16 C         143.5073  142.2191  169.4870 C.ar    1  UNL1        0.0220
     17 C         142.8906  143.1904  170.4493 C.ar    1  UNL1        0.0990
     18 N         141.4586  143.6046  170.2824 N.ar    1  UNL1       -0.2410
     19 C         140.6434  143.0475  169.1533 C.ar    1  UNL1        0.1137
     20 C         138.8721  139.7537  168.1391 C.3     1  UNL1        0.0237
     21 C         139.9258  140.1135  167.1338 C.3     1  UNL1        0.0986
     22 C         139.2374  138.6003  162.3995 C.3     1  UNL1        0.0253
     23 C         138.9484  137.3337  163.1494 C.3     1  UNL1        0.0048
     24 C         139.8857  138.5405  161.0482 C.3     1  UNL1        0.0048
@<TRIPOS>BOND
     1    20    21    1
     2    21    11    1
     3    11    12   am
     4    12    13    2
     5    12     1    1
     6     1     2   ar
     7     2     3   ar
     8     3    22    1
     9    22    23    1
    10    22    24    1
    11     3     4   ar
    12     4     5    1
    13     4     6   ar
    14     6     7   ar
    15     7     8    1
    16    11    14    1
    17    14    15   ar
    18    15    16   ar
    19    16    17   ar
    20    17    18   ar
    21    18    19   ar
    22     7     1   ar
    23    19    14   ar
    24     5     9    1
    25     8    10    1
@<TRIPOS>MOLECULE
*****
 24 25 0 0 0
SMALL
GASTEIGER

@<TRIPOS>ATOM
      1 C         142.2969  141.5467  165.7661 C.ar    1  UNL1        0.0874
      2 C         142.5215  142.1567  167.1179 C.ar    1  UNL1        0.0063
      3 C         142.7295  141.2750  168.3134 C.ar    1  UNL1        0.0115
      4 C         142.7128  139.7833  168.1572 C.ar    1  UNL1        0.1326
      5 O         142.9208  138.9015  169.3528 O.3     1  UNL1       -0.5057
      6 C         142.4881  139.1732  166.8054 C.ar    1  UNL1        0.0730
      7 C         142.2802  140.0549  165.6099 C.ar    1  UNL1        0.1410
      8 O         142.0555  139.4449  164.2580 O.3     1  UNL1       -0.5053
      9 H         143.0611  139.2826  170.1972 H       1  UNL1        0.2922
     10 H         142.0450  138.5130  164.1604 H       1  UNL1        0.2922
     11 N         140.7016  142.8361  164.1716 N.am    1  UNL1       -0.2536
     12 C         142.0889  142.4284  164.5705 C.2     1  UNL1        0.2557
     13 O         143.2682  142.9023  163.7740 O.2     1  UNL1       -0.2695
     14 C         140.4937  143.7178  162.9759 C.ar    1  UNL1        0.0733
     15 C         140.2832  145.1917  163.1586 C.ar    1  UNL1        0.0181
     16 C         140.0752  146.0734  161.9630 C.ar    1  UNL1        0.0220
     17 C         140.0778  145.4812  160.5849 C.ar    1  UNL1        0.0990
     18 N         140.2882  144.0073  160.4023 N.ar    1  UNL1       -0.2410
     19 C         140.4962  143.1256  161.5978 C.ar    1  UNL1        0.1137
     20 C         138.1386  142.4780  164.4007 C.3     1  UNL1        0.0237
     21 C         139.5223  142.3622  164.9681 C.3     1  UNL1        0.0986
     22 C         142.9542  141.8850  169.6653 C.3     1  UNL1        0.0253
     23 C         141.8677  141.8398  170.6985 C.3     1  UNL1        0.0048
     24 C         144.2653  142.5403  169.9839 C.3     1  UNL1        0.0048
@<TRIPOS>BOND
     1    20    21    1
     2    21    11    1
     3    11    12   am
     4    12    13    2
     5    12     1    1
     6     1     2   ar
     7     2     3   ar
     8     3    22    1
     9    22    23    1
    10    22    24    1
    11     3     4   ar
    12     4     5    1
    13     4     6   ar
    14     6     7   ar
    15     7     8    1
    16    11    14    1
    17    14    15   ar
    18    15    16   ar
    19    16    17   ar
    20    17    18   ar
    21    18    19   ar
    22     7     1   ar
    23    19    14   ar
    24     5     9    1
    25     8    10    1
@<TRIPOS>MOLECULE
*****
 24 25 0 0 0
SMALL
GASTEIGER

@<TRIPOS>ATOM
      1 C         141.6645  141.0855  165.9191 C.ar    1  UNL1        0.0874
      2 C         141.1395  141.4157  167.2848 C.ar    1  UNL1        0.0063
      3 C         141.5576  140.5938  168.4679 C.ar    1  UNL1        0.0115
      4 C         142.5007  139.4418  168.2852 C.ar    1  UNL1        0.1326
      5 O         142.9188  138.6199  169.4684 O.3     1  UNL1       -0.5057
      6 C         143.0257  139.1116  166.9195 C.ar    1  UNL1        0.0730
      7 C         142.6076  139.9335  165.7364 C.ar    1  UNL1        0.1410
      8 O         143.1326  139.6033  164.3706 O.3     1  UNL1       -0.5053
      9 H         142.5908  138.8262  170.3216 H       1  UNL1        0.2922
     10 H         143.7217  138.8837  164.2565 H       1  UNL1        0.2922
     11 N         142.0758  143.0814  164.3075 N.am    1  UNL1       -0.2536
     12 C         141.2464  141.9074  164.7359 C.2     1  UNL1        0.2557
     13 O         139.9988  141.5551  163.9812 O.2     1  UNL1       -0.2695
     14 C         141.6577  143.9033  163.1243 C.ar    1  UNL1        0.0733
     15 C         140.5366  144.8911  163.2558 C.ar    1  UNL1        0.0181
     16 C         140.1184  145.7129  162.0728 C.ar    1  UNL1        0.0220
     17 C         140.8215  145.5470  160.7582 C.ar    1  UNL1        0.0990
     18 N         141.9426  144.5592  160.6267 N.ar    1  UNL1       -0.2410
     19 C         142.3607  143.7373  161.8098 C.ar    1  UNL1        0.1137
     20 C         144.6427  142.8576  164.6408 C.3     1  UNL1        0.0237
     21 C         143.3233  143.4337  165.0622 C.3     1  UNL1        0.0986
     22 C         141.0326  140.9240  169.8337 C.3     1  UNL1        0.0253
     23 C         141.8076  141.8400  170.7339 C.3     1  UNL1        0.0048
     24 C         139.7326  140.3381  170.2994 C.3     1  UNL1        0.0048
@<TRIPOS>BOND
     1    20    21    1
     2    21    11    1
     3    11    12   am
     4    12    13    2
     5    12     1    1
     6     1     2   ar
     7     2     3   ar
     8     3    22    1
     9    22    23    1
    10    22    24    1
    11     3     4   ar
    12     4     5    1
    13     4     6   ar
    14     6     7   ar
    15     7     8    1
    16    11    14    1
    17    14    15   ar
    18    15    16   ar
    19    16    17   ar
    20    17    18   ar
    21    18    19   ar
    22     7     1   ar
    23    19    14   ar
    24     5     9    1
    25     8    10    1
