@<TRIPOS>MOLECULE
*****
 42 47 0 0 0
SMALL
GASTEIGER

@<TRIPOS>ATOM
      1 N         139.7536  139.5715  167.6569 N.3     1  UNL1       -0.2723
      2 C         138.3587  139.1426  167.3099 C.3     1  UNL1        0.0738
      3 C         138.0899  138.4462  166.0088 C.3     1  UNL1        0.0369
      4 C         139.2160  138.1788  165.0546 C.3     1  UNL1        0.0745
      5 C         140.6109  138.6077  165.4016 C.3     1  UNL1        0.0369
      6 C         140.8796  139.3040  166.7027 C.3     1  UNL1        0.0738
      7 N         138.9472  137.4825  163.7536 N.pl3   1  UNL1       -0.3058
      8 H         138.2752  136.7643  163.7092 H       1  UNL1        0.1495
      9 C         139.7023  137.8803  162.5200 C.ar    1  UNL1        0.1981
     10 N         141.0134  137.3099  162.0666 N.ar    1  UNL1       -0.2138
     11 C         141.4003  137.9954  160.7896 C.ar    1  UNL1        0.0999
     12 C         142.5903  137.8429  159.8893 C.ar    1  UNL1        0.0207
     13 C         142.7081  138.6844  158.6532 C.ar    1  UNL1        0.0016
     14 C         141.6361  139.6784  158.3175 C.ar    1  UNL1        0.0016
     15 C         140.4461  139.8309  159.2178 C.ar    1  UNL1        0.0188
     16 C         140.3283  138.9894  160.4539 C.ar    1  UNL1        0.0801
     17 N         139.2788  138.9182  161.5234 N.ar    1  UNL1       -0.2956
     18 C         138.0259  139.7406  161.5853 C.3     1  UNL1        0.1354
     19 C         138.0271  141.0562  162.3057 C.ar    1  UNL1        0.0006
     20 C         137.6374  141.1191  163.7529 C.ar    1  UNL1       -0.0001
     21 C         137.6385  142.4347  164.4735 C.ar    1  UNL1        0.0294
     22 C         138.0294  143.6874  163.7469 C.ar    1  UNL1        0.1401
     23 F         138.0305  145.0030  164.4674 F       1  UNL1       -0.2042
     24 C         138.4191  143.6245  162.2998 C.ar    1  UNL1        0.0294
     25 C         138.4179  142.3089  161.5792 C.ar    1  UNL1       -0.0001
     26 C         140.0224  140.2679  168.9580 C.3     1  UNL1        0.0768
     27 C         140.5616  141.6675  168.9621 C.3     1  UNL1        0.0437
     28 C         142.6699  143.2771  165.3270 C.ar    1  UNL1        0.0536
     29 C         141.1757  143.3621  165.4264 C.ar    1  UNL1        0.0042
     30 C         140.4729  142.8256  166.6382 C.ar    1  UNL1       -0.0041
     31 C         141.2644  142.2041  167.7504 C.ar    1  UNL1       -0.0208
     32 C         142.7587  142.1190  167.6510 C.ar    1  UNL1       -0.0041
     33 C         143.4614  142.6556  166.4393 C.ar    1  UNL1        0.0042
     34 O         143.7548  145.2627  164.0501 O.2     1  UNL1       -0.2699
     35 C         143.3727  143.8136  164.1153 C.2     1  UNL1        0.2491
     36 N         143.6933  142.9011  162.9688 N.am    1  UNL1       -0.2732
     37 C         143.3112  141.4521  163.0340 C.3     1  UNL1        0.1108
     38 C         143.6318  140.5396  161.8875 C.3     1  UNL1        0.0904
     39 N         144.3346  141.0761  160.6757 N.3     1  UNL1       -0.2946
     40 C         144.7167  142.5251  160.6105 C.3     1  UNL1        0.0904
     41 C         144.3961  143.4376  161.7571 C.3     1  UNL1        0.1108
     42 H         143.7249  140.8961  159.8780 H       1  UNL1        0.1233
@<TRIPOS>BOND
     1    34    35    2
     2    35    28    1
     3    28    29   ar
     4    29    30   ar
     5    30    31   ar
     6    31    27    1
     7    27    26    1
     8    26     1    1
     9     1     2    1
    10     2     3    1
    11     3     4    1
    12     4     7    1
    13     7     9    1
    14     9    10   ar
    15    10    11   ar
    16    11    12   ar
    17    12    13   ar
    18    13    14   ar
    19    14    15   ar
    20    15    16   ar
    21    16    17   ar
    22    17    18    1
    23    18    19    1
    24    19    20   ar
    25    20    21   ar
    26    21    22   ar
    27    22    23    1
    28    22    24   ar
    29    24    25   ar
    30     4     5    1
    31     5     6    1
    32    31    32   ar
    33    32    33   ar
    34    35    36   am
    35    36    37    1
    36    37    38    1
    37    38    39    1
    38    39    40    1
    39    40    41    1
    40    33    28   ar
    41    41    36    1
    42     6     1    1
    43    17     9   ar
    44    25    19   ar
    45    16    11   ar
    46     7     8    1
    47    39    42    1
@<TRIPOS>MOLECULE
*****
 42 47 0 0 0
SMALL
GASTEIGER

@<TRIPOS>ATOM
      1 N         142.8531  139.9060  158.2807 N.3     1  UNL1       -0.2723
      2 C         141.6367  139.0916  158.6079 C.3     1  UNL1        0.0738
      3 C         141.5887  138.2912  159.8756 C.3     1  UNL1        0.0369
      4 C         142.7571  138.3052  160.8162 C.3     1  UNL1        0.0745
      5 C         143.9736  139.1197  160.4890 C.3     1  UNL1        0.0369
      6 C         144.0215  139.9201  159.2213 C.3     1  UNL1        0.0738
      7 N         142.7091  137.5049  162.0839 N.pl3   1  UNL1       -0.3058
      8 H         143.2833  136.7119  162.1874 H       1  UNL1        0.1495
      9 C         141.7863  137.9127  163.1939 C.ar    1  UNL1        0.1981
     10 N         140.3603  137.4780  163.3596 N.ar    1  UNL1       -0.2138
     11 C         139.8202  138.1235  164.6012 C.ar    1  UNL1        0.0999
     12 C         138.4750  138.0599  165.2616 C.ar    1  UNL1        0.0207
     13 C         138.2219  138.8299  166.5237 C.ar    1  UNL1        0.0016
     14 C         139.3142  139.6636  167.1254 C.ar    1  UNL1        0.0016
     15 C         140.6594  139.7272  166.4650 C.ar    1  UNL1        0.0188
     16 C         140.9124  138.9572  165.2029 C.ar    1  UNL1        0.0801
     17 N         142.1275  138.8269  164.3331 N.ar    1  UNL1       -0.2956
     18 C         143.4515  139.4938  164.5623 C.3     1  UNL1        0.1354
     19 C         143.6657  140.9093  164.1149 C.ar    1  UNL1        0.0006
     20 C         142.7771  142.0019  164.6316 C.ar    1  UNL1       -0.0001
     21 C         142.9913  143.4175  164.1843 C.ar    1  UNL1        0.0294
     22 C         144.0942  143.7406  163.2202 C.ar    1  UNL1        0.1401
     23 F         144.3083  145.1562  162.7728 F       1  UNL1       -0.2042
     24 C         144.9827  142.6481  162.7035 C.ar    1  UNL1        0.0294
     25 C         144.7685  141.2325  163.1509 C.ar    1  UNL1       -0.0001
     26 C         142.9012  140.7064  157.0130 C.3     1  UNL1        0.0768
     27 C         142.7198  142.1947  157.0583 C.3     1  UNL1        0.0437
     28 C         140.3430  144.0712  160.3870 C.ar    1  UNL1        0.0536
     29 C         139.6411  143.5311  159.1764 C.ar    1  UNL1        0.0042
     30 C         140.4334  142.9056  158.0668 C.ar    1  UNL1       -0.0041
     31 C         141.9275  142.8202  158.1679 C.ar    1  UNL1       -0.0208
     32 C         142.6294  143.3603  159.3785 C.ar    1  UNL1       -0.0041
     33 C         141.8372  143.9858  160.4880 C.ar    1  UNL1        0.0042
     34 O         139.3522  146.1831  161.5307 O.2     1  UNL1       -0.2699
     35 C         139.5508  144.6967  161.4965 C.2     1  UNL1        0.2491
     36 N         138.9571  143.8357  162.5719 N.am    1  UNL1       -0.2732
     37 C         139.1557  142.3493  162.5377 C.3     1  UNL1        0.1108
     38 C         138.5621  141.4884  163.6130 C.3     1  UNL1        0.0904
     39 N         137.7698  142.1139  164.7226 N.3     1  UNL1       -0.2946
     40 C         137.5712  143.6003  164.7568 C.3     1  UNL1        0.0904
     41 C         138.1648  144.4612  163.6814 C.3     1  UNL1        0.1108
     42 H         138.2324  141.8585  165.5950 H       1  UNL1        0.1233
@<TRIPOS>BOND
     1    34    35    2
     2    35    28    1
     3    28    29   ar
     4    29    30   ar
     5    30    31   ar
     6    31    27    1
     7    27    26    1
     8    26     1    1
     9     1     2    1
    10     2     3    1
    11     3     4    1
    12     4     7    1
    13     7     9    1
    14     9    10   ar
    15    10    11   ar
    16    11    12   ar
    17    12    13   ar
    18    13    14   ar
    19    14    15   ar
    20    15    16   ar
    21    16    17   ar
    22    17    18    1
    23    18    19    1
    24    19    20   ar
    25    20    21   ar
    26    21    22   ar
    27    22    23    1
    28    22    24   ar
    29    24    25   ar
    30     4     5    1
    31     5     6    1
    32    31    32   ar
    33    32    33   ar
    34    35    36   am
    35    36    37    1
    36    37    38    1
    37    38    39    1
    38    39    40    1
    39    40    41    1
    40    33    28   ar
    41    41    36    1
    42     6     1    1
    43    17     9   ar
    44    25    19   ar
    45    16    11   ar
    46     7     8    1
    47    39    42    1
@<TRIPOS>MOLECULE
*****
 42 47 0 0 0
SMALL
GASTEIGER

@<TRIPOS>ATOM
      1 N         143.0890  141.0355  157.7811 N.3     1  UNL1       -0.2723
      2 C         141.7870  141.6997  157.4445 C.3     1  UNL1        0.0738
      3 C         141.3755  142.9508  158.1626 C.3     1  UNL1        0.0369
      4 C         142.2661  143.5375  159.2174 C.3     1  UNL1        0.0745
      5 C         143.5683  142.8732  159.5540 C.3     1  UNL1        0.0369
      6 C         143.9797  141.6222  158.8359 C.3     1  UNL1        0.0738
      7 N         141.8547  144.7885  159.9355 N.pl3   1  UNL1       -0.3058
      8 H         142.1431  145.6672  159.5980 H       1  UNL1        0.1495
      9 C         141.0040  144.7006  161.1678 C.ar    1  UNL1        0.1981
     10 N         139.5058  144.7603  161.2110 N.ar    1  UNL1       -0.2138
     11 C         139.0780  144.6342  162.6431 C.ar    1  UNL1        0.0999
     12 C         137.7243  144.6270  163.2893 C.ar    1  UNL1        0.0207
     13 C         137.6045  144.4821  164.7774 C.ar    1  UNL1        0.0016
     14 C         138.8383  144.3444  165.6194 C.ar    1  UNL1        0.0016
     15 C         140.1919  144.3516  164.9732 C.ar    1  UNL1        0.0188
     16 C         140.3117  144.4966  163.4851 C.ar    1  UNL1        0.0801
     17 N         141.5021  144.5376  162.5732 N.ar    1  UNL1       -0.2956
     18 C         142.9383  144.4338  162.9932 C.3     1  UNL1        0.1354
     19 C         143.5363  143.0919  163.2956 C.ar    1  UNL1        0.0006
     20 C         145.0252  142.9395  163.3956 C.ar    1  UNL1       -0.0001
     21 C         145.6232  141.5975  163.6980 C.ar    1  UNL1        0.0294
     22 C         144.7323  140.4079  163.9005 C.ar    1  UNL1        0.1401
     23 F         145.3303  139.0659  164.2029 F       1  UNL1       -0.2042
     24 C         143.2434  140.5602  163.8005 C.ar    1  UNL1        0.0294
     25 C         142.6454  141.9022  163.4981 C.ar    1  UNL1       -0.0001
     26 C         143.5005  139.7844  157.0630 C.3     1  UNL1        0.0768
     27 C         142.9727  138.4540  157.5117 C.3     1  UNL1        0.0437
     28 C         141.2682  137.9893  161.6504 C.ar    1  UNL1        0.0536
     29 C         142.7497  137.8966  161.4346 C.ar    1  UNL1        0.0042
     30 C         143.3179  138.0515  160.0550 C.ar    1  UNL1       -0.0041
     31 C         142.4045  138.2991  158.8912 C.ar    1  UNL1       -0.0208
     32 C         140.9230  138.3918  159.1070 C.ar    1  UNL1       -0.0041
     33 C         140.3548  138.2369  160.4865 C.ar    1  UNL1        0.0042
     34 O         141.0892  136.6567  163.8734 O.2     1  UNL1       -0.2699
     35 C         140.7001  137.8345  163.0299 C.2     1  UNL1        0.2491
     36 N         139.7428  138.8574  163.5660 N.am    1  UNL1       -0.2732
     37 C         139.3537  140.0351  162.7225 C.3     1  UNL1        0.1108
     38 C         138.3964  141.0580  163.2585 C.3     1  UNL1        0.0904
     39 N         137.8282  140.9031  164.6382 N.3     1  UNL1       -0.2946
     40 C         138.2173  139.7254  165.4817 C.3     1  UNL1        0.0904
     41 C         139.1746  138.7025  164.9456 C.3     1  UNL1        0.1108
     42 H         136.8138  140.8705  164.5369 H       1  UNL1        0.1233
@<TRIPOS>BOND
     1    34    35    2
     2    35    28    1
     3    28    29   ar
     4    29    30   ar
     5    30    31   ar
     6    31    27    1
     7    27    26    1
     8    26     1    1
     9     1     2    1
    10     2     3    1
    11     3     4    1
    12     4     7    1
    13     7     9    1
    14     9    10   ar
    15    10    11   ar
    16    11    12   ar
    17    12    13   ar
    18    13    14   ar
    19    14    15   ar
    20    15    16   ar
    21    16    17   ar
    22    17    18    1
    23    18    19    1
    24    19    20   ar
    25    20    21   ar
    26    21    22   ar
    27    22    23    1
    28    22    24   ar
    29    24    25   ar
    30     4     5    1
    31     5     6    1
    32    31    32   ar
    33    32    33   ar
    34    35    36   am
    35    36    37    1
    36    37    38    1
    37    38    39    1
    38    39    40    1
    39    40    41    1
    40    33    28   ar
    41    41    36    1
    42     6     1    1
    43    17     9   ar
    44    25    19   ar
    45    16    11   ar
    46     7     8    1
    47    39    42    1
@<TRIPOS>MOLECULE
*****
 42 47 0 0 0
SMALL
GASTEIGER

@<TRIPOS>ATOM
      1 N         140.2141  140.1707  166.4594 N.3     1  UNL1       -0.2723
      2 C         141.4968  139.4317  166.2175 C.3     1  UNL1        0.0738
      3 C         141.6064  138.4767  165.0659 C.3     1  UNL1        0.0369
      4 C         140.4334  138.2609  164.1562 C.3     1  UNL1        0.0745
      5 C         139.1507  139.0001  164.3982 C.3     1  UNL1        0.0369
      6 C         139.0411  139.9549  165.5498 C.3     1  UNL1        0.0738
      7 N         140.5430  137.3061  163.0046 N.pl3   1  UNL1       -0.3058
      8 H         140.5326  136.3352  163.1675 H       1  UNL1        0.1495
      9 C         140.6686  137.8304  161.6049 C.ar    1  UNL1        0.1981
     10 N         139.5383  138.0690  160.6480 N.ar    1  UNL1       -0.2138
     11 C         140.1176  138.5943  159.3680 C.ar    1  UNL1        0.0999
     12 C         139.4822  139.0053  158.0729 C.ar    1  UNL1        0.0207
     13 C         140.3351  139.5025  156.9436 C.ar    1  UNL1        0.0016
     14 C         141.8234  139.5886  157.1094 C.ar    1  UNL1        0.0016
     15 C         142.4588  139.1776  158.4045 C.ar    1  UNL1        0.0188
     16 C         141.6060  138.6804  159.5337 C.ar    1  UNL1        0.0801
     17 N         141.9464  138.2084  160.9162 N.ar    1  UNL1       -0.2956
     18 C         143.3231  138.1283  161.5064 C.3     1  UNL1        0.1354
     19 C         143.8816  139.2934  162.2682 C.ar    1  UNL1        0.0006
     20 C         143.7686  140.6800  161.7071 C.ar    1  UNL1       -0.0001
     21 C         144.3270  141.8452  162.4690 C.ar    1  UNL1        0.0294
     22 C         144.9984  141.6239  163.7920 C.ar    1  UNL1        0.1401
     23 F         145.5569  142.7891  164.5538 F       1  UNL1       -0.2042
     24 C         145.1114  140.2374  164.3530 C.ar    1  UNL1        0.0294
     25 C         144.5530  139.0722  163.5912 C.ar    1  UNL1       -0.0001
     26 C         140.1044  141.1256  167.6111 C.3     1  UNL1        0.0768
     27 C         140.5831  142.5393  167.4614 C.3     1  UNL1        0.0437
     28 C         140.3036  144.5986  163.4700 C.ar    1  UNL1        0.0536
     29 C         139.1171  144.5768  164.3874 C.ar    1  UNL1        0.0042
     30 C         139.2102  143.8903  165.7179 C.ar    1  UNL1       -0.0041
     31 C         140.4899  143.2257  166.1310 C.ar    1  UNL1       -0.0208
     32 C         141.6765  143.2476  165.2135 C.ar    1  UNL1       -0.0041
     33 C         141.5833  143.9340  163.8831 C.ar    1  UNL1        0.0042
     34 O         139.9895  146.7673  162.0743 O.2     1  UNL1       -0.2699
     35 C         140.2104  145.2851  162.1396 C.2     1  UNL1        0.2491
     36 N         140.3380  144.4893  160.8745 N.am    1  UNL1       -0.2732
     37 C         140.5588  143.0071  160.9398 C.3     1  UNL1        0.1108
     38 C         140.6865  142.2113  159.6748 C.3     1  UNL1        0.0904
     39 N         140.5933  142.8977  158.3443 N.3     1  UNL1       -0.2946
     40 C         140.3724  144.3800  158.2789 C.3     1  UNL1        0.0904
     41 C         140.2448  145.1757  159.5441 C.3     1  UNL1        0.1108
     42 H         139.8197  142.4623  157.8419 H       1  UNL1        0.1233
@<TRIPOS>BOND
     1    34    35    2
     2    35    28    1
     3    28    29   ar
     4    29    30   ar
     5    30    31   ar
     6    31    27    1
     7    27    26    1
     8    26     1    1
     9     1     2    1
    10     2     3    1
    11     3     4    1
    12     4     7    1
    13     7     9    1
    14     9    10   ar
    15    10    11   ar
    16    11    12   ar
    17    12    13   ar
    18    13    14   ar
    19    14    15   ar
    20    15    16   ar
    21    16    17   ar
    22    17    18    1
    23    18    19    1
    24    19    20   ar
    25    20    21   ar
    26    21    22   ar
    27    22    23    1
    28    22    24   ar
    29    24    25   ar
    30     4     5    1
    31     5     6    1
    32    31    32   ar
    33    32    33   ar
    34    35    36   am
    35    36    37    1
    36    37    38    1
    37    38    39    1
    38    39    40    1
    39    40    41    1
    40    33    28   ar
    41    41    36    1
    42     6     1    1
    43    17     9   ar
    44    25    19   ar
    45    16    11   ar
    46     7     8    1
    47    39    42    1
@<TRIPOS>MOLECULE
*****
 42 47 0 0 0
SMALL
GASTEIGER

@<TRIPOS>ATOM
      1 N         140.1456  141.1912  166.6292 N.3     1  UNL1       -0.2723
      2 C         140.6210  142.6038  166.4600 C.3     1  UNL1        0.0738
      3 C         139.9985  143.4848  165.4176 C.3     1  UNL1        0.0369
      4 C         138.9008  142.9533  164.5445 C.3     1  UNL1        0.0745
      5 C         138.4254  141.5406  164.7138 C.3     1  UNL1        0.0369
      6 C         139.0478  140.6597  165.7561 C.3     1  UNL1        0.0738
      7 N         138.2783  143.8343  163.5023 N.pl3   1  UNL1       -0.3058
      8 H         137.6451  144.5396  163.7682 H       1  UNL1        0.1495
      9 C         138.6207  143.6406  162.0548 C.ar    1  UNL1        0.1981
     10 N         137.8326  142.8387  161.0619 N.ar    1  UNL1       -0.2138
     11 C         138.5361  142.9173  159.7395 C.ar    1  UNL1        0.0999
     12 C         138.2211  142.3243  158.3982 C.ar    1  UNL1        0.0207
     13 C         139.1291  142.5819  157.2324 C.ar    1  UNL1        0.0016
     14 C         140.3521  143.4325  157.4079 C.ar    1  UNL1        0.0016
     15 C         140.6671  144.0255  158.7492 C.ar    1  UNL1        0.0188
     16 C         139.7591  143.7679  159.9150 C.ar    1  UNL1        0.0801
     17 N         139.8114  144.2149  161.3459 N.ar    1  UNL1       -0.2956
     18 C         140.8688  145.0837  161.9601 C.3     1  UNL1        0.1354
     19 C         142.0937  144.4620  162.5625 C.ar    1  UNL1        0.0006
     20 C         142.7081  143.2491  161.9289 C.ar    1  UNL1       -0.0001
     21 C         143.9331  142.6273  162.5312 C.ar    1  UNL1        0.0294
     22 C         144.5437  143.2186  163.7672 C.ar    1  UNL1        0.1401
     23 F         145.7687  142.5968  164.3696 F       1  UNL1       -0.2042
     24 C         143.9293  144.4314  164.4008 C.ar    1  UNL1        0.0294
     25 C         142.7043  145.0532  163.7984 C.ar    1  UNL1       -0.0001
     26 C         140.7680  140.3101  167.6715 C.3     1  UNL1        0.0768
     27 C         141.9898  139.5053  167.3409 C.3     1  UNL1        0.0437
     28 C         142.8711  138.4055  163.0673 C.ar    1  UNL1        0.0536
     29 C         141.7659  137.7123  163.8074 C.ar    1  UNL1        0.0042
     30 C         141.4721  138.0789  165.2320 C.ar    1  UNL1       -0.0041
     31 C         142.2836  139.1387  165.9164 C.ar    1  UNL1       -0.0208
     32 C         143.3888  139.8319  165.1761 C.ar    1  UNL1       -0.0041
     33 C         143.6826  139.4653  163.7516 C.ar    1  UNL1        0.0042
     34 O         144.4423  137.3322  161.2983 O.2     1  UNL1       -0.2699
     35 C         143.1649  138.0390  161.6428 C.2     1  UNL1        0.2491
     36 N         142.1812  138.3792  160.5626 N.am    1  UNL1       -0.2732
     37 C         140.9038  139.0860  160.9070 C.3     1  UNL1        0.1108
     38 C         139.9201  139.4262  159.8270 C.3     1  UNL1        0.0904
     39 N         140.2138  139.0596  158.4024 N.3     1  UNL1       -0.2946
     40 C         141.4912  138.3528  158.0579 C.3     1  UNL1        0.0904
     41 C         142.4749  138.0126  159.1381 C.3     1  UNL1        0.1108
     42 H         140.2040  139.9277  157.8669 H       1  UNL1        0.1233
@<TRIPOS>BOND
     1    34    35    2
     2    35    28    1
     3    28    29   ar
     4    29    30   ar
     5    30    31   ar
     6    31    27    1
     7    27    26    1
     8    26     1    1
     9     1     2    1
    10     2     3    1
    11     3     4    1
    12     4     7    1
    13     7     9    1
    14     9    10   ar
    15    10    11   ar
    16    11    12   ar
    17    12    13   ar
    18    13    14   ar
    19    14    15   ar
    20    15    16   ar
    21    16    17   ar
    22    17    18    1
    23    18    19    1
    24    19    20   ar
    25    20    21   ar
    26    21    22   ar
    27    22    23    1
    28    22    24   ar
    29    24    25   ar
    30     4     5    1
    31     5     6    1
    32    31    32   ar
    33    32    33   ar
    34    35    36   am
    35    36    37    1
    36    37    38    1
    37    38    39    1
    38    39    40    1
    39    40    41    1
    40    33    28   ar
    41    41    36    1
    42     6     1    1
    43    17     9   ar
    44    25    19   ar
    45    16    11   ar
    46     7     8    1
    47    39    42    1
@<TRIPOS>MOLECULE
*****
 42 47 0 0 0
SMALL
GASTEIGER

@<TRIPOS>ATOM
      1 N         139.8844  139.2472  157.7111 N.3     1  UNL1       -0.2723
      2 C         139.9935  138.3432  158.9031 C.3     1  UNL1        0.0738
      3 C         139.1350  138.5852  160.1091 C.3     1  UNL1        0.0369
      4 C         138.1673  139.7313  160.1231 C.3     1  UNL1        0.0745
      5 C         138.0582  140.6353  158.9310 C.3     1  UNL1        0.0369
      6 C         138.9167  140.3933  157.7251 C.3     1  UNL1        0.0738
      7 N         137.3088  139.9733  161.3290 N.pl3   1  UNL1       -0.3058
      8 H         136.4573  139.4901  161.4321 H       1  UNL1        0.1495
      9 C         137.7476  140.9517  162.3779 C.ar    1  UNL1        0.1981
     10 N         137.3436  142.3938  162.4627 N.ar    1  UNL1       -0.2138
     11 C         138.0137  142.9932  163.6634 C.ar    1  UNL1        0.0999
     12 C         137.9846  144.3763  164.2431 C.ar    1  UNL1        0.0207
     13 C         138.7737  144.6877  165.4801 C.ar    1  UNL1        0.0016
     14 C         139.5920  143.6161  166.1374 C.ar    1  UNL1        0.0016
     15 C         139.6211  142.2329  165.5577 C.ar    1  UNL1        0.0188
     16 C         138.8320  141.9215  164.3207 C.ar    1  UNL1        0.0801
     17 N         138.6675  140.6598  163.5262 N.ar    1  UNL1       -0.2956
     18 C         139.3101  139.3383  163.8272 C.3     1  UNL1        0.1354
     19 C         140.7831  139.2654  164.1002 C.ar    1  UNL1        0.0006
     20 C         141.7427  140.0464  163.2520 C.ar    1  UNL1       -0.0001
     21 C         143.2158  139.9736  163.5249 C.ar    1  UNL1        0.0294
     22 C         143.7295  139.1198  164.6462 C.ar    1  UNL1        0.1401
     23 F         145.2027  139.0469  164.9191 F       1  UNL1       -0.2042
     24 C         142.7700  138.3388  165.4944 C.ar    1  UNL1        0.0294
     25 C         141.2969  138.4116  165.2214 C.ar    1  UNL1       -0.0001
     26 C         140.7429  139.0052  156.5051 C.3     1  UNL1        0.0768
     27 C         142.1273  139.5793  156.4425 C.3     1  UNL1        0.0437
     28 C         143.7838  141.8464  159.9591 C.ar    1  UNL1        0.0536
     29 C         143.3072  142.5883  158.7456 C.ar    1  UNL1        0.0042
     30 C         142.7550  141.8326  157.5734 C.ar    1  UNL1       -0.0041
     31 C         142.6794  140.3350  157.6147 C.ar    1  UNL1       -0.0208
     32 C         143.1561  139.5932  158.8282 C.ar    1  UNL1       -0.0041
     33 C         143.7083  140.3489  160.0003 C.ar    1  UNL1        0.0042
     34 O         145.7505  142.3710  161.5736 O.2     1  UNL1       -0.2699
     35 C         144.3360  142.6021  161.1312 C.2     1  UNL1        0.2491
     36 N         143.4736  143.5890  161.8610 N.am    1  UNL1       -0.2732
     37 C         142.0591  143.8200  161.4186 C.3     1  UNL1        0.1108
     38 C         141.1967  144.8068  162.1484 C.3     1  UNL1        0.0904
     39 N         141.7489  145.5626  163.3206 N.3     1  UNL1       -0.2946
     40 C         143.1634  145.3315  163.7630 C.3     1  UNL1        0.0904
     41 C         144.0258  144.3447  163.0332 C.3     1  UNL1        0.1108
     42 H         141.1517  145.3457  164.1185 H       1  UNL1        0.1233
@<TRIPOS>BOND
     1    34    35    2
     2    35    28    1
     3    28    29   ar
     4    29    30   ar
     5    30    31   ar
     6    31    27    1
     7    27    26    1
     8    26     1    1
     9     1     2    1
    10     2     3    1
    11     3     4    1
    12     4     7    1
    13     7     9    1
    14     9    10   ar
    15    10    11   ar
    16    11    12   ar
    17    12    13   ar
    18    13    14   ar
    19    14    15   ar
    20    15    16   ar
    21    16    17   ar
    22    17    18    1
    23    18    19    1
    24    19    20   ar
    25    20    21   ar
    26    21    22   ar
    27    22    23    1
    28    22    24   ar
    29    24    25   ar
    30     4     5    1
    31     5     6    1
    32    31    32   ar
    33    32    33   ar
    34    35    36   am
    35    36    37    1
    36    37    38    1
    37    38    39    1
    38    39    40    1
    39    40    41    1
    40    33    28   ar
    41    41    36    1
    42     6     1    1
    43    17     9   ar
    44    25    19   ar
    45    16    11   ar
    46     7     8    1
    47    39    42    1
@<TRIPOS>MOLECULE
*****
 42 47 0 0 0
SMALL
GASTEIGER

@<TRIPOS>ATOM
      1 N         139.4916  144.3000  161.2458 N.3     1  UNL1       -0.2723
      2 C         139.9326  144.0910  159.8275 C.3     1  UNL1        0.0738
      3 C         139.4634  142.8869  159.0657 C.3     1  UNL1        0.0369
      4 C         138.5531  141.8919  159.7224 C.3     1  UNL1        0.0745
      5 C         138.1121  142.1009  161.1409 C.3     1  UNL1        0.0369
      6 C         138.5813  143.3049  161.9025 C.3     1  UNL1        0.0738
      7 N         138.0839  140.6879  158.9608 N.pl3   1  UNL1       -0.3058
      8 H         137.1207  140.5346  158.8272 H       1  UNL1        0.1495
      9 C         139.0823  139.7174  158.4027 C.ar    1  UNL1        0.1981
     10 N         138.9654  138.9836  157.0997 N.ar    1  UNL1       -0.2138
     11 C         140.1837  138.1231  156.9414 C.ar    1  UNL1        0.0999
     12 C         140.6134  137.1817  155.8555 C.ar    1  UNL1        0.0207
     13 C         141.9130  136.4423  155.9748 C.ar    1  UNL1        0.0016
     14 C         142.7829  136.6443  157.1799 C.ar    1  UNL1        0.0016
     15 C         142.3533  137.5856  158.2658 C.ar    1  UNL1        0.0188
     16 C         141.0537  138.3251  158.1465 C.ar    1  UNL1        0.0801
     17 N         140.3730  139.3104  159.0497 N.ar    1  UNL1       -0.2956
     18 C         140.8919  139.8024  160.3683 C.3     1  UNL1        0.1354
     19 C         140.4018  139.1853  161.6445 C.ar    1  UNL1        0.0006
     20 C         139.2197  138.2620  161.6257 C.ar    1  UNL1       -0.0001
     21 C         138.7295  137.6449  162.9020 C.ar    1  UNL1        0.0294
     22 C         139.4215  137.9511  164.1972 C.ar    1  UNL1        0.1401
     23 F         138.9313  137.3340  165.4735 F       1  UNL1       -0.2042
     24 C         140.6035  138.8744  164.2161 C.ar    1  UNL1        0.0294
     25 C         141.0937  139.4915  162.9398 C.ar    1  UNL1       -0.0001
     26 C         139.9608  145.5040  162.0075 C.3     1  UNL1        0.0768
     27 C         141.0188  145.3597  163.0610 C.3     1  UNL1        0.0437
     28 C         140.4935  142.3693  166.3823 C.ar    1  UNL1        0.0536
     29 C         139.4899  143.4685  166.1972 C.ar    1  UNL1        0.0042
     30 C         139.6649  144.4653  165.0900 C.ar    1  UNL1       -0.0041
     31 C         140.8437  144.3629  164.1681 C.ar    1  UNL1       -0.0208
     32 C         141.8474  143.2636  164.3532 C.ar    1  UNL1       -0.0041
     33 C         141.6723  142.2668  165.4603 C.ar    1  UNL1        0.0042
     34 O         139.5324  140.1173  167.2512 O.2     1  UNL1       -0.2699
     35 C         140.3184  141.3725  167.4894 C.2     1  UNL1        0.2491
     36 N         140.9294  141.6308  168.8348 N.am    1  UNL1       -0.2732
     37 C         141.7154  142.8860  169.0731 C.3     1  UNL1        0.1108
     38 C         142.3263  143.1443  170.4184 C.3     1  UNL1        0.0904
     39 N         142.1513  142.1475  171.5256 N.3     1  UNL1       -0.2946
     40 C         141.3652  140.8924  171.2874 C.3     1  UNL1        0.0904
     41 C         140.7543  140.6340  169.9419 C.3     1  UNL1        0.1108
     42 H         141.6957  142.6388  172.2947 H       1  UNL1        0.1233
@<TRIPOS>BOND
     1    34    35    2
     2    35    28    1
     3    28    29   ar
     4    29    30   ar
     5    30    31   ar
     6    31    27    1
     7    27    26    1
     8    26     1    1
     9     1     2    1
    10     2     3    1
    11     3     4    1
    12     4     7    1
    13     7     9    1
    14     9    10   ar
    15    10    11   ar
    16    11    12   ar
    17    12    13   ar
    18    13    14   ar
    19    14    15   ar
    20    15    16   ar
    21    16    17   ar
    22    17    18    1
    23    18    19    1
    24    19    20   ar
    25    20    21   ar
    26    21    22   ar
    27    22    23    1
    28    22    24   ar
    29    24    25   ar
    30     4     5    1
    31     5     6    1
    32    31    32   ar
    33    32    33   ar
    34    35    36   am
    35    36    37    1
    36    37    38    1
    37    38    39    1
    38    39    40    1
    39    40    41    1
    40    33    28   ar
    41    41    36    1
    42     6     1    1
    43    17     9   ar
    44    25    19   ar
    45    16    11   ar
    46     7     8    1
    47    39    42    1
@<TRIPOS>MOLECULE
*****
 42 47 0 0 0
SMALL
GASTEIGER

@<TRIPOS>ATOM
      1 N         142.6822  140.1375  165.8021 N.3     1  UNL1       -0.2723
      2 C         141.4197  139.3276  165.8082 C.3     1  UNL1        0.0738
      3 C         141.1297  138.3822  164.6803 C.3     1  UNL1        0.0369
      4 C         142.1023  138.2467  163.5463 C.3     1  UNL1        0.0745
      5 C         143.3649  139.0566  163.5403 C.3     1  UNL1        0.0369
      6 C         143.6548  140.0020  164.6682 C.3     1  UNL1        0.0738
      7 N         141.8124  137.3013  162.4185 N.pl3   1  UNL1       -0.3058
      8 H         141.6936  136.3409  162.5994 H       1  UNL1        0.1495
      9 C         141.7033  137.8192  161.0150 C.ar    1  UNL1        0.1981
     10 N         142.8231  137.9169  160.0217 N.ar    1  UNL1       -0.2138
     11 C         142.2673  138.4884  158.7511 C.ar    1  UNL1        0.0999
     12 C         142.9045  138.8092  157.4317 C.ar    1  UNL1        0.0207
     13 C         142.0784  139.3854  156.3202 C.ar    1  UNL1        0.0016
     14 C         140.6150  139.6408  156.5281 C.ar    1  UNL1        0.0016
     15 C         139.9777  139.3200  157.8475 C.ar    1  UNL1        0.0188
     16 C         140.8039  138.7438  158.9591 C.ar    1  UNL1        0.0801
     17 N         140.4554  138.3302  160.3582 N.ar    1  UNL1       -0.2956
     18 C         139.0973  138.4131  160.9896 C.3     1  UNL1        0.1354
     19 C         138.6281  139.7037  161.5929 C.ar    1  UNL1        0.0006
     20 C         138.2425  139.7581  163.0415 C.ar    1  UNL1       -0.0001
     21 C         137.7734  141.0487  163.6449 C.ar    1  UNL1        0.0294
     22 C         137.6898  142.2851  162.7996 C.ar    1  UNL1        0.1401
     23 F         137.2206  143.5758  163.4030 F       1  UNL1       -0.2042
     24 C         138.0753  142.2308  161.3511 C.ar    1  UNL1        0.0294
     25 C         138.5445  140.9401  160.7477 C.ar    1  UNL1       -0.0001
     26 C         142.9722  141.0830  166.9300 C.3     1  UNL1        0.0768
     27 C         143.2602  142.5268  166.6431 C.3     1  UNL1        0.0437
     28 C         141.4216  144.5169  163.0502 C.ar    1  UNL1        0.0536
     29 C         142.9056  144.5735  163.2615 C.ar    1  UNL1        0.0042
     30 C         143.5185  143.9101  164.4592 C.ar    1  UNL1       -0.0041
     31 C         142.6474  143.1902  165.4455 C.ar    1  UNL1       -0.0208
     32 C         141.1633  143.1336  165.2341 C.ar    1  UNL1       -0.0041
     33 C         140.5505  143.7970  164.0365 C.ar    1  UNL1        0.0042
     34 O         140.1495  146.5203  161.9928 O.2     1  UNL1       -0.2699
     35 C         140.8088  145.1803  161.8525 C.2     1  UNL1        0.2491
     36 N         140.8553  144.5036  160.5146 N.am    1  UNL1       -0.2732
     37 C         141.5147  143.1636  160.3743 C.3     1  UNL1        0.1108
     38 C         141.5612  142.4870  159.0365 C.3     1  UNL1        0.0904
     39 N         140.9484  143.1503  157.8387 N.3     1  UNL1       -0.2946
     40 C         140.2891  144.4903  157.9790 C.3     1  UNL1        0.0904
     41 C         140.2425  145.1670  159.3169 C.3     1  UNL1        0.1108
     42 H         140.2410  142.5104  157.4775 H       1  UNL1        0.1233
@<TRIPOS>BOND
     1    34    35    2
     2    35    28    1
     3    28    29   ar
     4    29    30   ar
     5    30    31   ar
     6    31    27    1
     7    27    26    1
     8    26     1    1
     9     1     2    1
    10     2     3    1
    11     3     4    1
    12     4     7    1
    13     7     9    1
    14     9    10   ar
    15    10    11   ar
    16    11    12   ar
    17    12    13   ar
    18    13    14   ar
    19    14    15   ar
    20    15    16   ar
    21    16    17   ar
    22    17    18    1
    23    18    19    1
    24    19    20   ar
    25    20    21   ar
    26    21    22   ar
    27    22    23    1
    28    22    24   ar
    29    24    25   ar
    30     4     5    1
    31     5     6    1
    32    31    32   ar
    33    32    33   ar
    34    35    36   am
    35    36    37    1
    36    37    38    1
    37    38    39    1
    38    39    40    1
    39    40    41    1
    40    33    28   ar
    41    41    36    1
    42     6     1    1
    43    17     9   ar
    44    25    19   ar
    45    16    11   ar
    46     7     8    1
    47    39    42    1
@<TRIPOS>MOLECULE
*****
 42 47 0 0 0
SMALL
GASTEIGER

@<TRIPOS>ATOM
      1 N         141.3560  140.5529  167.0034 N.3     1  UNL1       -0.2723
      2 C         142.1822  139.5848  166.2096 C.3     1  UNL1        0.0738
      3 C         143.2500  140.0914  165.2858 C.3     1  UNL1        0.0369
      4 C         143.4914  141.5661  165.1558 C.3     1  UNL1        0.0745
      5 C         142.6652  142.5342  165.9497 C.3     1  UNL1        0.0369
      6 C         141.5975  142.0276  166.8734 C.3     1  UNL1        0.0738
      7 N         144.5591  142.0727  164.2321 N.pl3   1  UNL1       -0.3058
      8 H         145.4208  142.3789  164.5967 H       1  UNL1        0.1495
      9 C         144.3138  142.1129  162.7528 C.ar    1  UNL1        0.1981
     10 N         144.8016  141.1091  161.7506 N.ar    1  UNL1       -0.2138
     11 C         144.3270  141.5398  160.3944 C.ar    1  UNL1        0.0999
     12 C         144.5051  140.9396  159.0313 C.ar    1  UNL1        0.0207
     13 C         143.9022  141.6094  157.8323 C.ar    1  UNL1        0.0016
     14 C         143.1211  142.8795  157.9963 C.ar    1  UNL1        0.0016
     15 C         142.9429  143.4797  159.3594 C.ar    1  UNL1        0.0188
     16 C         143.5459  142.8098  160.5584 C.ar    1  UNL1        0.0801
     17 N         143.5378  143.1640  162.0160 N.ar    1  UNL1       -0.2956
     18 C         142.8707  144.3595  162.6291 C.3     1  UNL1        0.1354
     19 C         141.3980  144.3335  162.9125 C.ar    1  UNL1        0.0006
     20 C         140.8785  144.8318  164.2285 C.ar    1  UNL1       -0.0001
     21 C         139.4058  144.8059  164.5120 C.ar    1  UNL1        0.0294
     22 C         138.4525  144.2816  163.4793 C.ar    1  UNL1        0.1401
     23 F         136.9797  144.2556  163.7628 F       1  UNL1       -0.2042
     24 C         138.9719  143.7833  162.1634 C.ar    1  UNL1        0.0294
     25 C         140.4446  143.8092  161.8799 C.ar    1  UNL1       -0.0001
     26 C         140.2883  140.0463  167.9272 C.3     1  UNL1        0.0768
     27 C         139.0025  139.5144  167.3672 C.3     1  UNL1        0.0437
     28 C         138.4649  139.1581  162.9137 C.ar    1  UNL1        0.0536
     29 C         138.7867  137.9415  163.7299 C.ar    1  UNL1        0.0042
     30 C         138.9659  138.0603  165.2145 C.ar    1  UNL1       -0.0041
     31 C         138.8233  139.3956  165.8827 C.ar    1  UNL1       -0.0208
     32 C         138.5015  140.6122  165.0664 C.ar    1  UNL1       -0.0041
     33 C         138.3223  140.4935  163.5819 C.ar    1  UNL1        0.0042
     34 O         136.9172  139.1589  160.8270 O.2     1  UNL1       -0.2699
     35 C         138.2858  139.0394  161.4292 C.2     1  UNL1        0.2491
     36 N         139.4752  138.8011  160.5468 N.am    1  UNL1       -0.2732
     37 C         140.8438  138.6815  161.1491 C.3     1  UNL1        0.1108
     38 C         142.0332  138.4433  160.2668 C.3     1  UNL1        0.0904
     39 N         141.8541  138.3245  158.7822 N.3     1  UNL1       -0.2946
     40 C         140.4855  138.4440  158.1800 C.3     1  UNL1        0.0904
     41 C         139.2961  138.6823  159.0624 C.3     1  UNL1        0.1108
     42 H         142.2147  137.4087  158.5145 H       1  UNL1        0.1233
@<TRIPOS>BOND
     1    34    35    2
     2    35    28    1
     3    28    29   ar
     4    29    30   ar
     5    30    31   ar
     6    31    27    1
     7    27    26    1
     8    26     1    1
     9     1     2    1
    10     2     3    1
    11     3     4    1
    12     4     7    1
    13     7     9    1
    14     9    10   ar
    15    10    11   ar
    16    11    12   ar
    17    12    13   ar
    18    13    14   ar
    19    14    15   ar
    20    15    16   ar
    21    16    17   ar
    22    17    18    1
    23    18    19    1
    24    19    20   ar
    25    20    21   ar
    26    21    22   ar
    27    22    23    1
    28    22    24   ar
    29    24    25   ar
    30     4     5    1
    31     5     6    1
    32    31    32   ar
    33    32    33   ar
    34    35    36   am
    35    36    37    1
    36    37    38    1
    37    38    39    1
    38    39    40    1
    39    40    41    1
    40    33    28   ar
    41    41    36    1
    42     6     1    1
    43    17     9   ar
    44    25    19   ar
    45    16    11   ar
    46     7     8    1
    47    39    42    1
