@<TRIPOS>MOLECULE
*****
 36 39 0 0 0
SMALL
GASTEIGER

@<TRIPOS>ATOM
      1 C         138.8963  139.1936  165.4270 C.ar    1  UNL1        0.0957
      2 C         138.8981  137.7478  165.0277 C.ar    1  UNL1        0.1191
      3 N         138.8790  137.3706  163.5760 N.ar    1  UNL1       -0.2223
      4 C         138.8580  138.4392  162.5236 C.ar    1  UNL1        0.1784
      5 N         138.8365  138.3721  161.0253 N.ar    1  UNL1       -0.2236
      6 C         138.8214  139.7765  160.4986 C.ar    1  UNL1        0.1066
      7 C         138.8335  140.7115  161.6714 C.ar    1  UNL1        0.0910
      8 C         138.8562  139.8850  162.9229 C.ar    1  UNL1        0.0988
      9 N         138.8753  140.2623  164.3746 N.ar    1  UNL1       -0.3481
     10 H         138.8741  141.2113  164.6367 H       1  UNL1        0.1661
     11 C         142.3747  143.0424  170.2973 C.3     1  UNL1        0.0311
     12 C         141.5515  142.1897  169.3779 C.ar    1  UNL1       -0.0204
     13 C         141.9068  142.0952  167.9237 C.ar    1  UNL1       -0.0041
     14 C         141.0835  141.2426  167.0043 C.ar    1  UNL1        0.0028
     15 C         139.9049  140.4845  167.5392 C.ar    1  UNL1        0.0381
     16 C         138.9155  139.5709  166.8787 C.ar    1  UNL1        0.1193
     17 N         137.9486  139.1007  167.9247 N.ar    1  UNL1       -0.1678
     18 N         138.3405  139.7237  169.2317 N.ar    1  UNL1       -0.2508
     19 C         139.5496  140.5790  168.9934 C.ar    1  UNL1        0.0791
     20 C         140.3729  141.4316  169.9128 C.ar    1  UNL1        0.0145
     21 C         137.6454  139.5262  170.5461 C.3     1  UNL1        0.1289
     22 C         136.4443  138.6318  170.6324 C.3     1  UNL1        0.0437
     23 C         135.6388  138.5776  171.8966 C.3     1  UNL1        0.0742
     24 N         135.6524  137.3387  172.7421 N.3     1  UNL1       -0.2703
     25 C         134.4501  136.9778  173.5631 C.3     1  UNL1        0.0897
     26 C         136.8683  136.4606  172.7665 C.3     1  UNL1        0.0897
     27 C         138.8246  142.2100  161.6043 C.2     1  UNL1        0.2488
     28 O         137.6761  142.9250  160.9564 O.2     1  UNL1       -0.2700
     29 N         139.9642  142.9935  162.1853 N.am    1  UNL1       -0.3015
     30 H         140.7180  142.5243  162.6105 H       1  UNL1        0.1497
     31 C         139.9553  144.4920  162.1182 C.3     1  UNL1        0.0841
     32 C         140.7227  144.4390  160.8304 C.3     1  UNL1        0.0222
     33 C         139.1879  144.5451  163.4059 C.3     1  UNL1        0.0222
     34 C         139.9464  145.9905  162.0511 C.3     1  UNL1        0.1549
     35 O         138.9839  146.6947  161.1414 O.3     1  UNL1       -0.3803
     36 H         139.2040  146.4922  160.2187 H       1  UNL1        0.2105
@<TRIPOS>BOND
     1    11    12    1
     2    12    13   ar
     3    13    14   ar
     4    14    15   ar
     5    15    16   ar
     6    16     1    1
     7     1     2   ar
     8     2     3   ar
     9     3     4   ar
    10     4     5   ar
    11     5     6   ar
    12     6     7   ar
    13     7    27    1
    14    27    28    2
    15    27    29   am
    16    29    31    1
    17    31    32    1
    18    31    33    1
    19    31    34    1
    20    34    35    1
    21     7     8   ar
    22     8     9   ar
    23    16    17   ar
    24    17    18   ar
    25    18    21    1
    26    21    22    1
    27    22    23    1
    28    23    24    1
    29    24    25    1
    30    24    26    1
    31    18    19   ar
    32    19    20   ar
    33    20    12   ar
    34    19    15   ar
    35     9     1   ar
    36     8     4    1
    37    29    30    1
    38    35    36    1
    39     9    10    1
@<TRIPOS>MOLECULE
*****
 36 39 0 0 0
SMALL
GASTEIGER

@<TRIPOS>ATOM
      1 C         138.6865  141.7539  158.8742 C.ar    1  UNL1        0.0957
      2 C         139.9957  142.1588  158.2644 C.ar    1  UNL1        0.1191
      3 N         140.2094  142.0204  156.7862 N.ar    1  UNL1       -0.2223
      4 C         139.1137  141.4772  155.9176 C.ar    1  UNL1        0.1784
      5 N         139.0339  141.2280  154.4407 N.ar    1  UNL1       -0.2236
      6 C         137.6754  140.6691  154.1376 C.ar    1  UNL1        0.1066
      7 C         136.9155  140.5729  155.4273 C.ar    1  UNL1        0.0910
      8 C         137.8044  141.0723  156.5274 C.ar    1  UNL1        0.0988
      9 N         137.5908  141.2107  158.0057 N.ar    1  UNL1       -0.3481
     10 H         136.7315  140.9449  158.4059 H       1  UNL1        0.1661
     11 C         138.6908  138.1685  165.0204 C.3     1  UNL1        0.0311
     12 C         138.6548  139.0430  163.8023 C.ar    1  UNL1       -0.0204
     13 C         138.9479  138.4601  162.4516 C.ar    1  UNL1       -0.0041
     14 C         138.9119  139.3346  161.2335 C.ar    1  UNL1        0.0028
     15 C         138.5828  140.7920  161.3659 C.ar    1  UNL1        0.0381
     16 C         138.4729  141.8923  160.3524 C.ar    1  UNL1        0.1193
     17 N         138.1118  143.1553  161.0767 N.ar    1  UNL1       -0.1678
     18 N         137.9986  142.8355  162.5378 N.ar    1  UNL1       -0.2508
     19 C         138.2897  141.3749  162.7166 C.ar    1  UNL1        0.0791
     20 C         138.3257  140.5004  163.9347 C.ar    1  UNL1        0.0145
     21 C         137.6547  143.8059  163.6287 C.3     1  UNL1        0.1289
     22 C         138.7272  144.6579  164.2402 C.3     1  UNL1        0.0437
     23 C         140.1462  144.5285  163.7716 C.3     1  UNL1        0.0742
     24 N         140.5482  145.0801  162.4359 N.3     1  UNL1       -0.2703
     25 C         139.8460  146.2829  161.8790 C.3     1  UNL1        0.0897
     26 C         141.6525  144.4289  161.6570 C.3     1  UNL1        0.0897
     27 C         135.5129  140.0662  155.5885 C.2     1  UNL1        0.2488
     28 O         135.1247  138.7370  155.0116 O.2     1  UNL1       -0.2700
     29 N         134.4985  140.8886  156.3265 N.am    1  UNL1       -0.3015
     30 H         134.7533  141.7610  156.7050 H       1  UNL1        0.1497
     31 C         133.0959  140.3818  156.4876 C.3     1  UNL1        0.0841
     32 C         132.6530  141.2434  155.3423 C.3     1  UNL1        0.0222
     33 C         133.5387  139.5204  157.6329 C.3     1  UNL1        0.0222
     34 C         131.6933  139.8751  156.6488 C.3     1  UNL1        0.1549
     35 O         131.1089  139.7088  158.0202 O.3     1  UNL1       -0.3803
     36 H         131.5889  139.0115  158.4937 H       1  UNL1        0.2105
@<TRIPOS>BOND
     1    11    12    1
     2    12    13   ar
     3    13    14   ar
     4    14    15   ar
     5    15    16   ar
     6    16     1    1
     7     1     2   ar
     8     2     3   ar
     9     3     4   ar
    10     4     5   ar
    11     5     6   ar
    12     6     7   ar
    13     7    27    1
    14    27    28    2
    15    27    29   am
    16    29    31    1
    17    31    32    1
    18    31    33    1
    19    31    34    1
    20    34    35    1
    21     7     8   ar
    22     8     9   ar
    23    16    17   ar
    24    17    18   ar
    25    18    21    1
    26    21    22    1
    27    22    23    1
    28    23    24    1
    29    24    25    1
    30    24    26    1
    31    18    19   ar
    32    19    20   ar
    33    20    12   ar
    34    19    15   ar
    35     9     1   ar
    36     8     4    1
    37    29    30    1
    38    35    36    1
    39     9    10    1
@<TRIPOS>MOLECULE
*****
 36 39 0 0 0
SMALL
GASTEIGER

@<TRIPOS>ATOM
      1 C         139.6089  139.0252  165.5915 C.ar    1  UNL1        0.0957
      2 C         138.7203  137.9173  165.1091 C.ar    1  UNL1        0.1191
      3 N         138.8504  137.4095  163.7037 N.ar    1  UNL1       -0.2223
      4 C         139.8692  138.0095  162.7806 C.ar    1  UNL1        0.1784
      5 N         140.2255  137.7178  161.3531 N.ar    1  UNL1       -0.2236
      6 C         141.3343  138.6454  160.9532 C.ar    1  UNL1        0.1066
      7 C         141.6634  139.5105  162.1337 C.ar    1  UNL1        0.0910
      8 C         140.7579  139.1174  163.2631 C.ar    1  UNL1        0.0988
      9 N         140.6278  139.6253  164.6685 N.ar    1  UNL1       -0.3481
     10 H         141.2110  140.3525  164.9851 H       1  UNL1        0.1661
     11 C         142.7185  143.1190  170.5112 C.3     1  UNL1        0.0311
     12 C         141.9584  142.2296  169.5725 C.ar    1  UNL1       -0.0204
     13 C         142.4778  141.9830  168.1871 C.ar    1  UNL1       -0.0041
     14 C         141.7177  141.0936  167.2484 C.ar    1  UNL1        0.0028
     15 C         140.4382  140.4507  167.6951 C.ar    1  UNL1        0.0381
     16 C         139.4788  139.5331  166.9969 C.ar    1  UNL1        0.1193
     17 N         138.3664  139.2126  167.9508 N.ar    1  UNL1       -0.1678
     18 N         138.6384  139.9320  169.2386 N.ar    1  UNL1       -0.2508
     19 C         139.9189  140.6972  169.0805 C.ar    1  UNL1        0.0791
     20 C         140.6789  141.5867  170.0192 C.ar    1  UNL1        0.0145
     21 C         137.7805  139.8932  170.4684 C.3     1  UNL1        0.1289
     22 C         136.7472  138.8177  170.6283 C.3     1  UNL1        0.0437
     23 C         135.8354  138.8247  171.8194 C.3     1  UNL1        0.0742
     24 N         135.6928  137.5920  172.6621 N.3     1  UNL1       -0.2703
     25 C         134.4239  137.3469  173.4236 C.3     1  UNL1        0.0897
     26 C         136.8189  136.6045  172.7432 C.3     1  UNL1        0.0897
     27 C         142.7136  140.5806  162.1770 C.2     1  UNL1        0.2488
     28 O         144.1585  140.2213  161.9943 O.2     1  UNL1       -0.2700
     29 N         142.3189  142.0100  162.4031 N.am    1  UNL1       -0.3015
     30 H         141.3706  142.2458  162.5230 H       1  UNL1        0.1497
     31 C         143.3692  143.0801  162.4465 C.3     1  UNL1        0.0841
     32 C         143.4881  142.9032  163.9313 C.3     1  UNL1        0.0222
     33 C         143.2503  143.2571  160.9617 C.3     1  UNL1        0.0222
     34 C         144.4194  144.1502  162.4899 C.3     1  UNL1        0.1549
     35 O         144.0401  145.5597  162.8353 O.3     1  UNL1       -0.3803
     36 H         143.4691  145.9207  162.1392 H       1  UNL1        0.2105
@<TRIPOS>BOND
     1    11    12    1
     2    12    13   ar
     3    13    14   ar
     4    14    15   ar
     5    15    16   ar
     6    16     1    1
     7     1     2   ar
     8     2     3   ar
     9     3     4   ar
    10     4     5   ar
    11     5     6   ar
    12     6     7   ar
    13     7    27    1
    14    27    28    2
    15    27    29   am
    16    29    31    1
    17    31    32    1
    18    31    33    1
    19    31    34    1
    20    34    35    1
    21     7     8   ar
    22     8     9   ar
    23    16    17   ar
    24    17    18   ar
    25    18    21    1
    26    21    22    1
    27    22    23    1
    28    23    24    1
    29    24    25    1
    30    24    26    1
    31    18    19   ar
    32    19    20   ar
    33    20    12   ar
    34    19    15   ar
    35     9     1   ar
    36     8     4    1
    37    29    30    1
    38    35    36    1
    39     9    10    1
@<TRIPOS>MOLECULE
*****
 36 39 0 0 0
SMALL
GASTEIGER

@<TRIPOS>ATOM
      1 C         141.6783  139.1939  161.7366 C.ar    1  UNL1        0.0957
      2 C         142.9698  138.4418  161.8639 C.ar    1  UNL1        0.1191
      3 N         143.5424  137.7280  160.6753 N.ar    1  UNL1       -0.2223
      4 C         142.8234  137.7664  159.3594 C.ar    1  UNL1        0.1784
      5 N         143.1421  137.1632  158.0236 N.ar    1  UNL1       -0.2236
      6 C         142.0475  137.5425  157.0707 C.ar    1  UNL1        0.1066
      7 C         141.0524  138.3802  157.8176 C.ar    1  UNL1        0.0910
      8 C         141.5319  138.5186  159.2322 C.ar    1  UNL1        0.0988
      9 N         140.9593  139.2323  160.4207 N.ar    1  UNL1       -0.3481
     10 H         140.1116  139.7260  160.3372 H       1  UNL1        0.1661
     11 C         137.4524  138.3966  167.4057 C.3     1  UNL1        0.0311
     12 C         138.3626  138.7029  166.2534 C.ar    1  UNL1       -0.0204
     13 C         138.6833  137.6377  165.2472 C.ar    1  UNL1       -0.0041
     14 C         139.5936  137.9441  164.0950 C.ar    1  UNL1        0.0028
     15 C         140.1831  139.3155  163.9490 C.ar    1  UNL1        0.0381
     16 C         141.1057  139.9077  162.9252 C.ar    1  UNL1        0.1193
     17 N         141.3553  141.3389  163.2987 N.ar    1  UNL1       -0.1678
     18 N         140.5869  141.6313  164.5533 N.ar    1  UNL1       -0.2508
     19 C         139.8624  140.3807  164.9552 C.ar    1  UNL1        0.0791
     20 C         138.9522  140.0744  166.1074 C.ar    1  UNL1        0.0145
     21 C         140.5494  142.9437  165.2786 C.3     1  UNL1        0.1289
     22 C         139.2819  143.7449  165.3144 C.3     1  UNL1        0.0437
     23 C         138.9456  144.6677  164.1807 C.3     1  UNL1        0.0742
     24 N         138.8930  144.1428  162.7766 N.3     1  UNL1       -0.2703
     25 C         137.8711  143.1117  162.3992 C.3     1  UNL1        0.0897
     26 C         139.8624  144.6489  161.7499 C.3     1  UNL1        0.0897
     27 C         139.7980  138.9750  157.2497 C.2     1  UNL1        0.2488
     28 O         138.8406  138.1133  156.4808 O.2     1  UNL1       -0.2700
     29 N         139.5008  140.4315  157.4506 N.am    1  UNL1       -0.3015
     30 H         140.1291  140.9970  157.9552 H       1  UNL1        0.1497
     31 C         138.2463  141.0263  156.8826 C.3     1  UNL1        0.0841
     32 C         138.9482  141.2607  155.5778 C.3     1  UNL1        0.0222
     33 C         137.5444  140.7919  158.1873 C.3     1  UNL1        0.0222
     34 C         136.9919  141.6211  156.3146 C.3     1  UNL1        0.1549
     35 O         136.7082  143.0833  156.4918 O.3     1  UNL1       -0.3803
     36 H         136.5667  143.2735  157.4324 H       1  UNL1        0.2105
@<TRIPOS>BOND
     1    11    12    1
     2    12    13   ar
     3    13    14   ar
     4    14    15   ar
     5    15    16   ar
     6    16     1    1
     7     1     2   ar
     8     2     3   ar
     9     3     4   ar
    10     4     5   ar
    11     5     6   ar
    12     6     7   ar
    13     7    27    1
    14    27    28    2
    15    27    29   am
    16    29    31    1
    17    31    32    1
    18    31    33    1
    19    31    34    1
    20    34    35    1
    21     7     8   ar
    22     8     9   ar
    23    16    17   ar
    24    17    18   ar
    25    18    21    1
    26    21    22    1
    27    22    23    1
    28    23    24    1
    29    24    25    1
    30    24    26    1
    31    18    19   ar
    32    19    20   ar
    33    20    12   ar
    34    19    15   ar
    35     9     1   ar
    36     8     4    1
    37    29    30    1
    38    35    36    1
    39     9    10    1
@<TRIPOS>MOLECULE
*****
 36 39 0 0 0
SMALL
GASTEIGER

@<TRIPOS>ATOM
      1 C         140.8963  143.5566  162.2527 C.ar    1  UNL1        0.0957
      2 C         139.9549  144.7242  162.2705 C.ar    1  UNL1        0.1191
      3 N         139.7318  145.5269  161.0232 N.ar    1  UNL1       -0.2223
      4 C         140.4500  145.1619  159.7579 C.ar    1  UNL1        0.1784
      5 N         140.4310  145.7630  158.3838 N.ar    1  UNL1       -0.2236
      6 C         141.3606  144.9668  157.5167 C.ar    1  UNL1        0.1066
      7 C         141.9542  143.8737  158.3549 C.ar    1  UNL1        0.0910
      8 C         141.3914  143.9942  159.7401 C.ar    1  UNL1        0.0988
      9 N         141.6145  143.1916  160.9875 N.ar    1  UNL1       -0.3481
     10 H         142.2324  142.4252  160.9757 H       1  UNL1        0.1661
     11 C         137.8960  138.8040  166.6167 C.3     1  UNL1        0.0311
     12 C         138.6454  139.8017  165.7841 C.ar    1  UNL1       -0.0204
     13 C         138.0106  140.3798  164.5542 C.ar    1  UNL1       -0.0041
     14 C         138.7599  141.3775  163.7217 C.ar    1  UNL1        0.0028
     15 C         140.1441  141.7971  164.1191 C.ar    1  UNL1        0.0381
     16 C         141.1194  142.7539  163.5001 C.ar    1  UNL1        0.1193
     17 N         142.3571  142.7672  164.3475 N.ar    1  UNL1       -0.1678
     18 N         142.1466  141.8186  165.4902 N.ar    1  UNL1       -0.2508
     19 C         140.7789  141.2190  165.3490 C.ar    1  UNL1        0.0791
     20 C         140.0295  140.2213  166.1815 C.ar    1  UNL1        0.0145
     21 C         143.1310  141.5216  166.5823 C.3     1  UNL1        0.1289
     22 C         143.1656  142.3772  167.8139 C.3     1  UNL1        0.0437
     23 C         142.7461  141.8062  169.1359 C.3     1  UNL1        0.0742
     24 N         141.4425  142.2198  169.7520 N.3     1  UNL1       -0.2703
     25 C         140.4911  143.0874  168.9824 C.3     1  UNL1        0.0897
     26 C         141.0902  141.7659  171.1376 C.3     1  UNL1        0.0897
     27 C         142.9378  142.8413  157.8896 C.2     1  UNL1        0.2488
     28 O         142.8748  141.4455  158.4355 O.2     1  UNL1       -0.2700
     29 N         143.9845  143.2045  156.8785 N.am    1  UNL1       -0.3015
     30 H         144.0259  144.1206  156.5202 H       1  UNL1        0.1497
     31 C         144.9682  142.1720  156.4132 C.3     1  UNL1        0.0841
     32 C         145.8903  142.5445  157.5362 C.3     1  UNL1        0.0222
     33 C         144.0462  141.7996  155.2902 C.3     1  UNL1        0.0222
     34 C         145.9519  141.1396  155.9480 C.3     1  UNL1        0.1549
     35 O         145.7304  139.6923  156.2737 O.3     1  UNL1       -0.3803
     36 H         145.7998  139.5623  157.2324 H       1  UNL1        0.2105
@<TRIPOS>BOND
     1    11    12    1
     2    12    13   ar
     3    13    14   ar
     4    14    15   ar
     5    15    16   ar
     6    16     1    1
     7     1     2   ar
     8     2     3   ar
     9     3     4   ar
    10     4     5   ar
    11     5     6   ar
    12     6     7   ar
    13     7    27    1
    14    27    28    2
    15    27    29   am
    16    29    31    1
    17    31    32    1
    18    31    33    1
    19    31    34    1
    20    34    35    1
    21     7     8   ar
    22     8     9   ar
    23    16    17   ar
    24    17    18   ar
    25    18    21    1
    26    21    22    1
    27    22    23    1
    28    23    24    1
    29    24    25    1
    30    24    26    1
    31    18    19   ar
    32    19    20   ar
    33    20    12   ar
    34    19    15   ar
    35     9     1   ar
    36     8     4    1
    37    29    30    1
    38    35    36    1
    39     9    10    1
@<TRIPOS>MOLECULE
*****
 36 39 0 0 0
SMALL
GASTEIGER

@<TRIPOS>ATOM
      1 C         139.4301  142.8608  163.7994 C.ar    1  UNL1        0.0957
      2 C         138.6618  144.1415  163.9395 C.ar    1  UNL1        0.1191
      3 N         138.8018  145.2173  162.9036 N.ar    1  UNL1       -0.2223
      4 C         139.7101  145.0124  161.7276 C.ar    1  UNL1        0.1784
      5 N         140.0482  145.8863  160.5564 N.ar    1  UNL1       -0.2236
      6 C         141.0255  145.1458  159.6924 C.ar    1  UNL1        0.1066
      7 C         141.2913  143.8142  160.3296 C.ar    1  UNL1        0.0910
      8 C         140.4783  143.7317  161.5875 C.ar    1  UNL1        0.0988
      9 N         140.3383  142.6559  162.6234 N.ar    1  UNL1       -0.3481
     10 H         140.8426  141.8154  162.5314 H       1  UNL1        0.1661
     11 C         141.1221  141.0902  170.4803 C.3     1  UNL1        0.0311
     12 C         140.6972  141.3347  169.0627 C.ar    1  UNL1       -0.0204
     13 C         141.0746  142.6141  168.3766 C.ar    1  UNL1       -0.0041
     14 C         140.6497  142.8586  166.9590 C.ar    1  UNL1        0.0028
     15 C         139.8473  141.8237  166.2274 C.ar    1  UNL1        0.0381
     16 C         139.2901  141.7850  164.8353 C.ar    1  UNL1        0.1193
     17 N         138.5683  140.4817  164.6610 N.ar    1  UNL1       -0.1678
     18 N         138.6794  139.7149  165.9453 N.ar    1  UNL1       -0.2508
     19 C         139.4700  140.5443  166.9135 C.ar    1  UNL1        0.0791
     20 C         139.8949  140.2998  168.3311 C.ar    1  UNL1        0.0145
     21 C         138.1015  138.3571  166.2144 C.3     1  UNL1        0.1289
     22 C         138.5980  137.1658  165.4500 C.3     1  UNL1        0.0437
     23 C         138.9610  137.3024  164.0010 C.3     1  UNL1        0.0742
     24 N         140.3779  137.5978  163.6073 N.3     1  UNL1       -0.2703
     25 C         140.7037  137.9489  162.1859 C.3     1  UNL1        0.0897
     26 C         141.4690  137.5421  164.6351 C.3     1  UNL1        0.0897
     27 C         142.2090  142.7516  159.8017 C.2     1  UNL1        0.2488
     28 O         142.6361  141.6205  160.6896 O.2     1  UNL1       -0.2700
     29 N         142.6996  142.8200  158.3858 N.am    1  UNL1       -0.3015
     30 H         142.4193  143.5623  157.8031 H       1  UNL1        0.1497
     31 C         143.6173  141.7573  157.8579 C.3     1  UNL1        0.0841
     32 C         142.4329  140.9769  157.3698 C.3     1  UNL1        0.0222
     33 C         144.8017  142.5376  158.3460 C.3     1  UNL1        0.0222
     34 C         144.5349  140.6947  157.3300 C.3     1  UNL1        0.1549
     35 O         145.8898  141.0669  156.8049 O.3     1  UNL1       -0.3803
     36 H         145.7895  141.6067  156.0053 H       1  UNL1        0.2105
@<TRIPOS>BOND
     1    11    12    1
     2    12    13   ar
     3    13    14   ar
     4    14    15   ar
     5    15    16   ar
     6    16     1    1
     7     1     2   ar
     8     2     3   ar
     9     3     4   ar
    10     4     5   ar
    11     5     6   ar
    12     6     7   ar
    13     7    27    1
    14    27    28    2
    15    27    29   am
    16    29    31    1
    17    31    32    1
    18    31    33    1
    19    31    34    1
    20    34    35    1
    21     7     8   ar
    22     8     9   ar
    23    16    17   ar
    24    17    18   ar
    25    18    21    1
    26    21    22    1
    27    22    23    1
    28    23    24    1
    29    24    25    1
    30    24    26    1
    31    18    19   ar
    32    19    20   ar
    33    20    12   ar
    34    19    15   ar
    35     9     1   ar
    36     8     4    1
    37    29    30    1
    38    35    36    1
    39     9    10    1
@<TRIPOS>MOLECULE
*****
 36 39 0 0 0
SMALL
GASTEIGER

@<TRIPOS>ATOM
      1 C         139.0830  142.3111  159.7119 C.ar    1  UNL1        0.0957
      2 C         138.5434  140.9231  159.8917 C.ar    1  UNL1        0.1191
      3 N         137.7685  140.2705  158.7856 N.ar    1  UNL1       -0.2223
      4 C         137.5332  141.0058  157.4995 C.ar    1  UNL1        0.1784
      5 N         136.8118  140.6222  156.2416 N.ar    1  UNL1       -0.2236
      6 C         136.9055  141.7732  155.2842 C.ar    1  UNL1        0.1066
      7 C         137.6849  142.8680  155.9505 C.ar    1  UNL1        0.0910
      8 C         138.0728  142.3937  157.3197 C.ar    1  UNL1        0.0988
      9 N         138.8477  143.0464  158.4258 N.ar    1  UNL1       -0.3481
     10 H         139.2018  143.9574  158.3077 H       1  UNL1        0.1661
     11 C         138.4847  145.2257  166.1756 C.3     1  UNL1        0.0311
     12 C         138.7537  144.6401  164.8211 C.ar    1  UNL1       -0.0204
     13 C         137.6267  144.0658  164.0150 C.ar    1  UNL1       -0.0041
     14 C         137.8957  143.4802  162.6604 C.ar    1  UNL1        0.0028
     15 C         139.2918  143.4690  162.1120 C.ar    1  UNL1        0.0381
     16 C         139.8578  142.9638  160.8181 C.ar    1  UNL1        0.1193
     17 N         141.3347  143.2259  160.8244 N.ar    1  UNL1       -0.1678
     18 N         141.6815  143.8930  162.1224 N.ar    1  UNL1       -0.2508
     19 C         140.4188  144.0433  162.9181 C.ar    1  UNL1        0.0791
     20 C         140.1498  144.6288  164.2727 C.ar    1  UNL1        0.0145
     21 C         143.0505  144.3327  162.5496 C.3     1  UNL1        0.1289
     22 C         143.5684  143.9599  163.9070 C.3     1  UNL1        0.0437
     23 C         144.5757  142.8575  164.0487 C.3     1  UNL1        0.0742
     24 N         144.1221  141.4631  164.3649 N.3     1  UNL1       -0.2703
     25 C         144.9826  140.2921  163.9929 C.3     1  UNL1        0.0897
     26 C         142.8081  141.2397  165.0529 C.3     1  UNL1        0.0897
     27 C         138.0178  144.2028  155.3526 C.2     1  UNL1        0.2488
     28 O         136.9785  144.9580  154.5782 O.2     1  UNL1       -0.2700
     29 N         139.3900  144.7824  155.5291 N.am    1  UNL1       -0.3015
     30 H         140.0721  144.2868  156.0374 H       1  UNL1        0.1497
     31 C         139.7229  146.1172  154.9312 C.3     1  UNL1        0.0841
     32 C         140.2819  145.4344  153.7181 C.3     1  UNL1        0.0222
     33 C         139.1639  146.8000  156.1441 C.3     1  UNL1        0.0222
     34 C         140.0558  147.4520  154.3332 C.3     1  UNL1        0.1549
     35 O         139.9935  148.6892  155.1790 O.3     1  UNL1       -0.3803
     36 H         139.0749  148.8543  155.4433 H       1  UNL1        0.2105
@<TRIPOS>BOND
     1    11    12    1
     2    12    13   ar
     3    13    14   ar
     4    14    15   ar
     5    15    16   ar
     6    16     1    1
     7     1     2   ar
     8     2     3   ar
     9     3     4   ar
    10     4     5   ar
    11     5     6   ar
    12     6     7   ar
    13     7    27    1
    14    27    28    2
    15    27    29   am
    16    29    31    1
    17    31    32    1
    18    31    33    1
    19    31    34    1
    20    34    35    1
    21     7     8   ar
    22     8     9   ar
    23    16    17   ar
    24    17    18   ar
    25    18    21    1
    26    21    22    1
    27    22    23    1
    28    23    24    1
    29    24    25    1
    30    24    26    1
    31    18    19   ar
    32    19    20   ar
    33    20    12   ar
    34    19    15   ar
    35     9     1   ar
    36     8     4    1
    37    29    30    1
    38    35    36    1
    39     9    10    1
@<TRIPOS>MOLECULE
*****
 36 39 0 0 0
SMALL
GASTEIGER

@<TRIPOS>ATOM
      1 C         141.5414  139.7505  161.8507 C.ar    1  UNL1        0.0957
      2 C         141.7242  138.2718  161.6780 C.ar    1  UNL1        0.1191
      3 N         142.3380  137.7339  160.4195 N.ar    1  UNL1       -0.2223
      4 C         142.7690  138.6747  159.3336 C.ar    1  UNL1        0.1784
      5 N         143.3991  138.4390  157.9930 N.ar    1  UNL1       -0.2236
      6 C         143.6058  139.7721  157.3371 C.ar    1  UNL1        0.1066
      7 C         143.1034  140.8317  158.2724 C.ar    1  UNL1        0.0910
      8 C         142.5862  140.1534  159.5064 C.ar    1  UNL1        0.0988
      9 N         141.9724  140.6913  160.7649 N.ar    1  UNL1       -0.3481
     10 H         141.8525  141.6619  160.8782 H       1  UNL1        0.1661
     11 C         137.3281  138.0774  167.3354 C.3     1  UNL1        0.0311
     12 C         138.2286  138.5630  166.2384 C.ar    1  UNL1       -0.0204
     13 C         138.6072  137.6426  165.1161 C.ar    1  UNL1       -0.0041
     14 C         139.5077  138.1282  164.0192 C.ar    1  UNL1        0.0028
     15 C         140.0296  139.5342  164.0445 C.ar    1  UNL1        0.0381
     16 C         140.9277  140.2884  163.1093 C.ar    1  UNL1        0.1193
     17 N         141.1042  141.6750  163.6535 N.ar    1  UNL1       -0.1678
     18 N         140.3152  141.7778  164.9251 N.ar    1  UNL1       -0.2508
     19 C         139.6511  140.4546  165.1667 C.ar    1  UNL1        0.0791
     20 C         138.7506  139.9690  166.2637 C.ar    1  UNL1        0.0145
     21 C         140.2090  142.9906  165.8013 C.3     1  UNL1        0.1289
     22 C         139.2776  144.1058  165.4287 C.3     1  UNL1        0.0437
     23 C         138.2053  143.8770  164.4051 C.3     1  UNL1        0.0742
     24 N         138.5119  144.0472  162.9467 N.3     1  UNL1       -0.2703
     25 C         138.1044  142.9880  161.9660 C.3     1  UNL1        0.0897
     26 C         139.2260  145.2768  162.4690 C.3     1  UNL1        0.0897
     27 C         143.1159  142.3099  158.0184 C.2     1  UNL1        0.2488
     28 O         144.4088  143.0688  158.0699 O.2     1  UNL1       -0.2700
     29 N         141.8356  143.0293  157.7129 N.am    1  UNL1       -0.3015
     30 H         140.9871  142.5313  157.6792 H       1  UNL1        0.1497
     31 C         141.8483  144.5077  157.4589 C.3     1  UNL1        0.0841
     32 C         141.5717  144.7596  158.9116 C.3     1  UNL1        0.0222
     33 C         142.1248  144.2557  156.0063 C.3     1  UNL1        0.0222
     34 C         141.8608  145.9859  157.2049 C.3     1  UNL1        0.1549
     35 O         140.5734  146.7161  156.9618 O.3     1  UNL1       -0.3803
     36 H         140.1813  146.4115  156.1285 H       1  UNL1        0.2105
@<TRIPOS>BOND
     1    11    12    1
     2    12    13   ar
     3    13    14   ar
     4    14    15   ar
     5    15    16   ar
     6    16     1    1
     7     1     2   ar
     8     2     3   ar
     9     3     4   ar
    10     4     5   ar
    11     5     6   ar
    12     6     7   ar
    13     7    27    1
    14    27    28    2
    15    27    29   am
    16    29    31    1
    17    31    32    1
    18    31    33    1
    19    31    34    1
    20    34    35    1
    21     7     8   ar
    22     8     9   ar
    23    16    17   ar
    24    17    18   ar
    25    18    21    1
    26    21    22    1
    27    22    23    1
    28    23    24    1
    29    24    25    1
    30    24    26    1
    31    18    19   ar
    32    19    20   ar
    33    20    12   ar
    34    19    15   ar
    35     9     1   ar
    36     8     4    1
    37    29    30    1
    38    35    36    1
    39     9    10    1
@<TRIPOS>MOLECULE
*****
 36 39 0 0 0
SMALL
GASTEIGER

@<TRIPOS>ATOM
      1 C         141.5595  139.0437  159.3566 C.ar    1  UNL1        0.0957
      2 C         140.7507  140.1967  158.8405 C.ar    1  UNL1        0.1191
      3 N         140.4713  140.3191  157.3718 N.ar    1  UNL1       -0.2223
      4 C         141.0007  139.2884  156.4192 C.ar    1  UNL1        0.1784
      5 N         140.8881  139.1460  154.9303 N.ar    1  UNL1       -0.2236
      6 C         141.6272  137.9049  154.5261 C.ar    1  UNL1        0.1066
      7 C         142.1967  137.2803  155.7653 C.ar    1  UNL1        0.0910
      8 C         141.8095  138.1354  156.9353 C.ar    1  UNL1        0.0988
      9 N         142.0889  138.0130  158.4040 N.ar    1  UNL1       -0.3481
     10 H         142.6197  137.2562  158.7427 H       1  UNL1        0.1661
     11 C         138.6309  137.3717  165.6223 C.3     1  UNL1        0.0311
     12 C         139.3725  137.7489  164.3742 C.ar    1  UNL1       -0.0204
     13 C         138.6684  137.7331  163.0498 C.ar    1  UNL1       -0.0041
     14 C         139.4100  138.1103  161.8017 C.ar    1  UNL1        0.0028
     15 C         140.8555  138.5033  161.8779 C.ar    1  UNL1        0.0381
     16 C         141.8389  138.9213  160.8252 C.ar    1  UNL1        0.1193
     17 N         143.1507  139.1955  161.4990 N.ar    1  UNL1       -0.1678
     18 N         142.9781  138.9469  162.9681 N.ar    1  UNL1       -0.2508
     19 C         141.5596  138.5191  163.2023 C.ar    1  UNL1        0.0791
     20 C         140.8180  138.1419  164.4504 C.ar    1  UNL1        0.0145
     21 C         144.0379  139.0994  164.0187 C.3     1  UNL1        0.1289
     22 C         144.2483  140.4268  164.6847 C.3     1  UNL1        0.0437
     23 C         144.7998  141.5804  163.9004 C.3     1  UNL1        0.0742
     24 N         143.8875  142.4134  163.0496 N.3     1  UNL1       -0.2703
     25 C         144.4325  143.1437  161.8581 C.3     1  UNL1        0.0897
     26 C         142.4303  142.5161  163.3903 C.3     1  UNL1        0.0897
     27 C         143.0105  136.0217  155.8241 C.2     1  UNL1        0.2488
     28 O         144.4411  136.0317  155.3729 O.2     1  UNL1       -0.2700
     29 N         142.3938  134.7530  156.3341 N.am    1  UNL1       -0.3015
     30 H         141.4550  134.7464  156.6302 H       1  UNL1        0.1497
     31 C         143.2077  133.4943  156.3929 C.3     1  UNL1        0.0841
     32 C         142.8005  133.1653  154.9871 C.3     1  UNL1        0.0222
     33 C         143.6150  133.8232  157.7985 C.3     1  UNL1        0.0222
     34 C         144.0216  132.2357  156.4516 C.3     1  UNL1        0.1549
     35 O         145.5151  132.3019  156.3294 O.3     1  UNL1       -0.3803
     36 H         145.7535  132.6080  155.4403 H       1  UNL1        0.2105
@<TRIPOS>BOND
     1    11    12    1
     2    12    13   ar
     3    13    14   ar
     4    14    15   ar
     5    15    16   ar
     6    16     1    1
     7     1     2   ar
     8     2     3   ar
     9     3     4   ar
    10     4     5   ar
    11     5     6   ar
    12     6     7   ar
    13     7    27    1
    14    27    28    2
    15    27    29   am
    16    29    31    1
    17    31    32    1
    18    31    33    1
    19    31    34    1
    20    34    35    1
    21     7     8   ar
    22     8     9   ar
    23    16    17   ar
    24    17    18   ar
    25    18    21    1
    26    21    22    1
    27    22    23    1
    28    23    24    1
    29    24    25    1
    30    24    26    1
    31    18    19   ar
    32    19    20   ar
    33    20    12   ar
    34    19    15   ar
    35     9     1   ar
    36     8     4    1
    37    29    30    1
    38    35    36    1
    39     9    10    1
