@<TRIPOS>MOLECULE
*****
 28 32 0 0 0
SMALL
GASTEIGER

@<TRIPOS>ATOM
      1 C         138.0901  142.2745  162.9283 C.ar    1  UNL1        0.1770
      2 N         137.8477  142.1371  161.4544 N.ar    1  UNL1       -0.2018
      3 C         138.4642  140.8468  161.0016 C.ar    1  UNL1        0.1806
      4 N         138.5385  140.1875  159.6563 N.ar    1  UNL1       -0.2238
      5 C         139.2362  138.8683  159.5051 C.ar    1  UNL1        0.1007
      6 C         139.8596  138.2083  160.6992 C.ar    1  UNL1        0.0223
      7 C         139.7853  138.8676  162.0445 C.ar    1  UNL1        0.0223
      8 C         139.0876  140.1868  162.1957 C.ar    1  UNL1        0.1016
      9 N         138.8564  141.0692  163.3865 N.ar    1  UNL1       -0.2839
     10 C         139.3115  140.7945  164.7891 C.ar    1  UNL1        0.0658
     11 C         138.4639  139.9596  165.7027 C.ar    1  UNL1        0.0173
     12 C         138.9191  139.6849  167.1053 C.ar    1  UNL1       -0.0028
     13 C         140.2217  140.2450  167.5944 C.ar    1  UNL1       -0.0224
     14 C         141.0694  141.0799  166.6808 C.ar    1  UNL1       -0.0026
     15 C         142.3720  141.6401  167.1699 C.ar    1  UNL1       -0.0003
     16 C         143.2196  142.4749  166.2564 C.ar    1  UNL1       -0.0000
     17 C         142.7645  142.7496  164.8537 C.ar    1  UNL1        0.0000
     18 C         141.4618  142.1895  164.3646 C.ar    1  UNL1        0.0014
     19 C         140.6142  141.3546  165.2782 C.ar    1  UNL1        0.0159
     20 C         140.6769  139.9703  168.9970 C.3     1  UNL1        0.0224
     21 C         140.4505  140.0596  170.4771 C.3     1  UNL1        0.0047
     22 C         141.6915  139.4052  169.9463 C.3     1  UNL1        0.0047
     23 S         137.6444  143.4168  163.7923 S.3     1  UNL1       -0.0722
     24 C         138.7821  144.9180  165.5817 C.3     1  UNL1        0.0181
     25 C         138.6093  144.5084  164.1492 C.3     1  UNL1        0.0910
     26 C         139.4013  145.1905  163.0732 C.2     1  UNL1        0.0605
     27 O         140.8760  145.4025  163.2476 O.co2   1  UNL1       -0.5483
     28 O         138.7187  145.6605  161.8230 O.co2   1  UNL1       -0.5483
@<TRIPOS>UNITY_ATOM_ATTR
27 1
charge -1
@<TRIPOS>BOND
     1    24    25    1
     2    25    23    1
     3    23     1    1
     4     1     2   ar
     5     2     3   ar
     6     3     4   ar
     7     4     5   ar
     8     5     6   ar
     9     6     7   ar
    10     7     8   ar
    11     8     9   ar
    12     9    10    1
    13    10    11   ar
    14    11    12   ar
    15    12    13   ar
    16    13    20    1
    17    20    21    1
    18    21    22    1
    19    13    14   ar
    20    14    15   ar
    21    15    16   ar
    22    16    17   ar
    23    17    18   ar
    24    18    19   ar
    25    25    26    1
    26    26    27   ar
    27    26    28   ar
    28     9     1   ar
    29    19    10   ar
    30     8     3   ar
    31    22    20    1
    32    19    14   ar
@<TRIPOS>MOLECULE
*****
 28 32 0 0 0
SMALL
GASTEIGER

@<TRIPOS>ATOM
      1 C         138.7274  141.0226  163.1874 C.ar    1  UNL1        0.1770
      2 N         138.4041  141.8844  162.0031 N.ar    1  UNL1       -0.2018
      3 C         139.2302  143.1328  162.0990 C.ar    1  UNL1        0.1806
      4 N         139.3308  144.3401  161.2146 N.ar    1  UNL1       -0.2238
      5 C         140.2654  145.4571  161.5738 C.ar    1  UNL1        0.1007
      6 C         141.0993  145.3666  162.8173 C.ar    1  UNL1        0.0223
      7 C         140.9987  144.1593  163.7017 C.ar    1  UNL1        0.0223
      8 C         140.0641  143.0424  163.3425 C.ar    1  UNL1        0.1016
      9 N         139.7534  141.7382  164.0152 N.ar    1  UNL1       -0.2839
     10 C         140.3618  141.2375  165.2916 C.ar    1  UNL1        0.0658
     11 C         139.7141  141.5557  166.6066 C.ar    1  UNL1        0.0173
     12 C         140.3226  141.0550  167.8830 C.ar    1  UNL1       -0.0028
     13 C         141.5787  140.2362  167.8444 C.ar    1  UNL1       -0.0224
     14 C         142.2265  139.9180  166.5294 C.ar    1  UNL1       -0.0026
     15 C         143.4826  139.0991  166.4908 C.ar    1  UNL1       -0.0003
     16 C         144.1304  138.7809  165.1758 C.ar    1  UNL1       -0.0000
     17 C         143.5219  139.2816  163.8994 C.ar    1  UNL1        0.0000
     18 C         142.2658  140.1004  163.9380 C.ar    1  UNL1        0.0014
     19 C         141.6181  140.4186  165.2530 C.ar    1  UNL1        0.0159
     20 C         142.1871  139.7355  169.1208 C.3     1  UNL1        0.0224
     21 C         142.8509  140.0083  170.4379 C.3     1  UNL1        0.0047
     22 C         142.5772  138.5956  170.0143 C.3     1  UNL1        0.0047
     23 S         138.1298  139.6806  163.4907 S.3     1  UNL1       -0.0722
     24 C         139.2314  137.7137  164.7820 C.3     1  UNL1        0.0181
     25 C         138.9982  138.4576  163.5006 C.3     1  UNL1        0.0910
     26 C         139.6333  137.9785  162.2289 C.2     1  UNL1        0.0605
     27 O         140.9431  137.2487  162.2733 O.co2   1  UNL1       -0.5483
     28 O         138.9587  138.2292  160.9128 O.co2   1  UNL1       -0.5483
@<TRIPOS>UNITY_ATOM_ATTR
27 1
charge -1
@<TRIPOS>BOND
     1    24    25    1
     2    25    23    1
     3    23     1    1
     4     1     2   ar
     5     2     3   ar
     6     3     4   ar
     7     4     5   ar
     8     5     6   ar
     9     6     7   ar
    10     7     8   ar
    11     8     9   ar
    12     9    10    1
    13    10    11   ar
    14    11    12   ar
    15    12    13   ar
    16    13    20    1
    17    20    21    1
    18    21    22    1
    19    13    14   ar
    20    14    15   ar
    21    15    16   ar
    22    16    17   ar
    23    17    18   ar
    24    18    19   ar
    25    25    26    1
    26    26    27   ar
    27    26    28   ar
    28     9     1   ar
    29    19    10   ar
    30     8     3   ar
    31    22    20    1
    32    19    14   ar
@<TRIPOS>MOLECULE
*****
 28 32 0 0 0
SMALL
GASTEIGER

@<TRIPOS>ATOM
      1 C         139.5228  140.0036  166.8302 C.ar    1  UNL1        0.1770
      2 N         139.5871  139.4842  168.2360 N.ar    1  UNL1       -0.2018
      3 C         139.9513  140.6274  169.1363 C.ar    1  UNL1        0.1806
      4 N         140.1573  140.7105  170.6197 N.ar    1  UNL1       -0.2238
      5 C         140.5242  142.0195  171.2538 C.ar    1  UNL1        0.1007
      6 C         140.6850  143.2453  170.4044 C.ar    1  UNL1        0.0223
      7 C         140.4790  143.1622  168.9209 C.ar    1  UNL1        0.0223
      8 C         140.1122  141.8532  168.2869 C.ar    1  UNL1        0.1016
      9 N         139.8474  141.4677  166.8617 N.ar    1  UNL1       -0.2839
     10 C         139.8981  142.3852  165.6761 C.ar    1  UNL1        0.0658
     11 C         138.6291  142.7918  164.9875 C.ar    1  UNL1        0.0173
     12 C         138.6799  143.7093  163.8019 C.ar    1  UNL1       -0.0028
     13 C         139.9997  144.2202  163.3049 C.ar    1  UNL1       -0.0224
     14 C         141.2688  143.8136  163.9935 C.ar    1  UNL1       -0.0026
     15 C         142.5886  144.3245  163.4965 C.ar    1  UNL1       -0.0003
     16 C         143.8576  143.9179  164.1851 C.ar    1  UNL1       -0.0000
     17 C         143.8069  143.0005  165.3707 C.ar    1  UNL1        0.0000
     18 C         142.4871  142.4895  165.8677 C.ar    1  UNL1        0.0014
     19 C         141.2180  142.8961  165.1791 C.ar    1  UNL1        0.0159
     20 C         140.0505  145.1377  162.1193 C.3     1  UNL1        0.0224
     21 C         140.4910  145.4206  160.7137 C.3     1  UNL1        0.0047
     22 C         139.6980  146.4438  161.4715 C.3     1  UNL1        0.0047
     23 S         139.1921  139.1999  165.6077 S.3     1  UNL1       -0.0722
     24 C         141.7257  138.8847  165.1268 C.3     1  UNL1        0.0181
     25 C         140.2932  138.6106  164.7768 C.3     1  UNL1        0.0910
     26 C         139.9616  137.7472  163.5958 C.2     1  UNL1        0.0605
     27 O         138.5543  137.6905  163.0798 O.co2   1  UNL1       -0.5483
     28 O         141.0373  136.9406  162.9308 O.co2   1  UNL1       -0.5483
@<TRIPOS>UNITY_ATOM_ATTR
27 1
charge -1
@<TRIPOS>BOND
     1    24    25    1
     2    25    23    1
     3    23     1    1
     4     1     2   ar
     5     2     3   ar
     6     3     4   ar
     7     4     5   ar
     8     5     6   ar
     9     6     7   ar
    10     7     8   ar
    11     8     9   ar
    12     9    10    1
    13    10    11   ar
    14    11    12   ar
    15    12    13   ar
    16    13    20    1
    17    20    21    1
    18    21    22    1
    19    13    14   ar
    20    14    15   ar
    21    15    16   ar
    22    16    17   ar
    23    17    18   ar
    24    18    19   ar
    25    25    26    1
    26    26    27   ar
    27    26    28   ar
    28     9     1   ar
    29    19    10   ar
    30     8     3   ar
    31    22    20    1
    32    19    14   ar
@<TRIPOS>MOLECULE
*****
 28 32 0 0 0
SMALL
GASTEIGER

@<TRIPOS>ATOM
      1 C         141.0936  142.4429  162.6797 C.ar    1  UNL1        0.1770
      2 N         141.4901  142.0777  161.2799 N.ar    1  UNL1       -0.2018
      3 C         142.3283  140.8354  161.3448 C.ar    1  UNL1        0.1806
      4 N         142.9966  140.0188  160.2788 N.ar    1  UNL1       -0.2238
      5 C         143.7864  138.7995  160.6527 C.ar    1  UNL1        0.1007
      6 C         143.9078  138.3970  162.0926 C.ar    1  UNL1        0.0223
      7 C         143.2394  139.2137  163.1586 C.ar    1  UNL1        0.0223
      8 C         142.4497  140.4329  162.7847 C.ar    1  UNL1        0.1016
      9 N         141.6866  141.4264  163.6097 N.ar    1  UNL1       -0.2839
     10 C         141.5419  141.4068  165.1026 C.ar    1  UNL1        0.0658
     11 C         142.5079  142.1697  165.9598 C.ar    1  UNL1        0.0173
     12 C         142.3632  142.1501  167.4527 C.ar    1  UNL1       -0.0028
     13 C         141.2526  141.3675  168.0883 C.ar    1  UNL1       -0.0224
     14 C         140.2866  140.6045  167.2311 C.ar    1  UNL1       -0.0026
     15 C         139.1760  139.8219  167.8668 C.ar    1  UNL1       -0.0003
     16 C         138.2101  139.0590  167.0096 C.ar    1  UNL1       -0.0000
     17 C         138.3548  139.0786  165.5167 C.ar    1  UNL1        0.0000
     18 C         139.4653  139.8612  164.8810 C.ar    1  UNL1        0.0014
     19 C         140.4313  140.6241  165.7382 C.ar    1  UNL1        0.0159
     20 C         141.1080  141.3479  169.5812 C.3     1  UNL1        0.0224
     21 C         141.4035  140.7109  170.9067 C.3     1  UNL1        0.0047
     22 C         140.5618  141.9509  170.8414 C.3     1  UNL1        0.0047
     23 S         140.2517  143.6184  163.0793 S.3     1  UNL1       -0.0722
     24 C         138.2825  143.9006  164.7504 C.3     1  UNL1        0.0181
     25 C         138.8064  143.4216  163.4290 C.3     1  UNL1        0.0910
     26 C         137.8850  142.7458  162.4573 C.2     1  UNL1        0.0605
     27 O         137.9106  143.1305  161.0076 O.co2   1  UNL1       -0.5483
     28 O         136.9379  141.6853  162.9351 O.co2   1  UNL1       -0.5483
@<TRIPOS>UNITY_ATOM_ATTR
27 1
charge -1
@<TRIPOS>BOND
     1    24    25    1
     2    25    23    1
     3    23     1    1
     4     1     2   ar
     5     2     3   ar
     6     3     4   ar
     7     4     5   ar
     8     5     6   ar
     9     6     7   ar
    10     7     8   ar
    11     8     9   ar
    12     9    10    1
    13    10    11   ar
    14    11    12   ar
    15    12    13   ar
    16    13    20    1
    17    20    21    1
    18    21    22    1
    19    13    14   ar
    20    14    15   ar
    21    15    16   ar
    22    16    17   ar
    23    17    18   ar
    24    18    19   ar
    25    25    26    1
    26    26    27   ar
    27    26    28   ar
    28     9     1   ar
    29    19    10   ar
    30     8     3   ar
    31    22    20    1
    32    19    14   ar
@<TRIPOS>MOLECULE
*****
 28 32 0 0 0
SMALL
GASTEIGER

@<TRIPOS>ATOM
      1 C         141.0140  140.0221  166.7408 C.ar    1  UNL1        0.1770
      2 N         141.1086  139.4999  168.1437 N.ar    1  UNL1       -0.2018
      3 C         140.8816  140.6480  169.0820 C.ar    1  UNL1        0.1806
      4 N         140.8585  140.7310  170.5795 N.ar    1  UNL1       -0.2238
      5 C         140.6005  142.0457  171.2539 C.ar    1  UNL1        0.1007
      6 C         140.3656  143.2775  170.4307 C.ar    1  UNL1        0.0223
      7 C         140.3887  143.1946  168.9332 C.ar    1  UNL1        0.0223
      8 C         140.6468  141.8798  168.2588 C.ar    1  UNL1        0.1016
      9 N         140.7286  141.4930  166.8119 N.ar    1  UNL1       -0.2839
     10 C         140.5553  142.4152  165.6416 C.ar    1  UNL1        0.0658
     11 C         139.1901  142.6475  165.0654 C.ar    1  UNL1        0.0173
     12 C         139.0168  143.5696  163.8951 C.ar    1  UNL1       -0.0028
     13 C         140.2089  144.2594  163.3009 C.ar    1  UNL1       -0.0224
     14 C         141.5743  144.0271  163.8771 C.ar    1  UNL1       -0.0026
     15 C         142.7663  144.7170  163.2829 C.ar    1  UNL1       -0.0003
     16 C         144.1316  144.4846  163.8590 C.ar    1  UNL1       -0.0000
     17 C         144.3048  143.5625  165.0294 C.ar    1  UNL1        0.0000
     18 C         143.1128  142.8727  165.6235 C.ar    1  UNL1        0.0014
     19 C         141.7475  143.1050  165.0474 C.ar    1  UNL1        0.0159
     20 C         140.0357  145.1816  162.1306 C.3     1  UNL1        0.0224
     21 C         140.2330  145.4840  160.6748 C.3     1  UNL1        0.0047
     22 C         139.5383  146.4763  161.5595 C.3     1  UNL1        0.0047
     23 S         141.1763  139.2151  165.4868 S.3     1  UNL1       -0.0722
     24 C         142.3059  139.9518  163.2661 C.3     1  UNL1        0.0181
     25 C         142.4087  139.3743  164.6466 C.3     1  UNL1        0.0910
     26 C         143.7440  138.9558  165.1871 C.2     1  UNL1        0.0605
     27 O         145.0032  139.4874  164.5692 O.co2   1  UNL1       -0.5483
     28 O         143.8200  138.0058  166.3454 O.co2   1  UNL1       -0.5483
@<TRIPOS>UNITY_ATOM_ATTR
27 1
charge -1
@<TRIPOS>BOND
     1    24    25    1
     2    25    23    1
     3    23     1    1
     4     1     2   ar
     5     2     3   ar
     6     3     4   ar
     7     4     5   ar
     8     5     6   ar
     9     6     7   ar
    10     7     8   ar
    11     8     9   ar
    12     9    10    1
    13    10    11   ar
    14    11    12   ar
    15    12    13   ar
    16    13    20    1
    17    20    21    1
    18    21    22    1
    19    13    14   ar
    20    14    15   ar
    21    15    16   ar
    22    16    17   ar
    23    17    18   ar
    24    18    19   ar
    25    25    26    1
    26    26    27   ar
    27    26    28   ar
    28     9     1   ar
    29    19    10   ar
    30     8     3   ar
    31    22    20    1
    32    19    14   ar
@<TRIPOS>MOLECULE
*****
 28 32 0 0 0
SMALL
GASTEIGER

@<TRIPOS>ATOM
      1 C         143.3893  141.6943  162.9525 C.ar    1  UNL1        0.1770
      2 N         143.5416  142.3972  161.6361 N.ar    1  UNL1       -0.2018
      3 C         142.4400  143.4086  161.5205 C.ar    1  UNL1        0.1806
      4 N         142.0879  144.3904  160.4425 N.ar    1  UNL1       -0.2238
      5 C         140.9026  145.2944  160.6094 C.ar    1  UNL1        0.1007
      6 C         140.0694  145.2166  161.8543 C.ar    1  UNL1        0.0223
      7 C         140.4215  144.2348  162.9323 C.ar    1  UNL1        0.0223
      8 C         141.6068  143.3308  162.7654 C.ar    1  UNL1        0.1016
      9 N         142.1935  142.2713  163.6504 N.ar    1  UNL1       -0.2839
     10 C         141.6754  141.8609  164.9969 C.ar    1  UNL1        0.0658
     11 C         142.2668  142.4546  166.2410 C.ar    1  UNL1        0.0173
     12 C         141.7487  142.0442  167.5875 C.ar    1  UNL1       -0.0028
     13 C         140.6391  141.0400  167.6900 C.ar    1  UNL1       -0.0224
     14 C         140.0476  140.4463  166.4459 C.ar    1  UNL1       -0.0026
     15 C         138.9380  139.4421  166.5484 C.ar    1  UNL1       -0.0003
     16 C         138.3466  138.8484  165.3043 C.ar    1  UNL1       -0.0000
     17 C         138.8647  139.2589  163.9578 C.ar    1  UNL1        0.0000
     18 C         139.9743  140.2630  163.8553 C.ar    1  UNL1        0.0014
     19 C         140.5657  140.8567  165.0994 C.ar    1  UNL1        0.0159
     20 C         140.1210  140.6296  169.0365 C.3     1  UNL1        0.0224
     21 C         138.9911  140.5277  170.0177 C.3     1  UNL1        0.0047
     22 C         140.3535  140.0207  170.3874 C.3     1  UNL1        0.0047
     23 S         144.2769  140.6055  163.4785 S.3     1  UNL1       -0.0722
     24 C         143.6130  138.7856  165.2097 C.3     1  UNL1        0.0181
     25 C         143.7038  139.2542  163.7878 C.3     1  UNL1        0.0910
     26 C         143.2215  138.3716  162.6748 C.2     1  UNL1        0.0605
     27 O         144.0158  138.2614  161.4072 O.co2   1  UNL1       -0.5483
     28 O         141.9450  137.5992  162.8297 O.co2   1  UNL1       -0.5483
@<TRIPOS>UNITY_ATOM_ATTR
27 1
charge -1
@<TRIPOS>BOND
     1    24    25    1
     2    25    23    1
     3    23     1    1
     4     1     2   ar
     5     2     3   ar
     6     3     4   ar
     7     4     5   ar
     8     5     6   ar
     9     6     7   ar
    10     7     8   ar
    11     8     9   ar
    12     9    10    1
    13    10    11   ar
    14    11    12   ar
    15    12    13   ar
    16    13    20    1
    17    20    21    1
    18    21    22    1
    19    13    14   ar
    20    14    15   ar
    21    15    16   ar
    22    16    17   ar
    23    17    18   ar
    24    18    19   ar
    25    25    26    1
    26    26    27   ar
    27    26    28   ar
    28     9     1   ar
    29    19    10   ar
    30     8     3   ar
    31    22    20    1
    32    19    14   ar
@<TRIPOS>MOLECULE
*****
 28 32 0 0 0
SMALL
GASTEIGER

@<TRIPOS>ATOM
      1 C         142.9055  142.3549  166.6332 C.ar    1  UNL1        0.1770
      2 N         143.4430  142.5561  168.0191 N.ar    1  UNL1       -0.2018
      3 C         142.5466  141.8254  168.9744 C.ar    1  UNL1        0.1806
      4 N         142.5832  141.6702  170.4659 N.ar    1  UNL1       -0.2238
      5 C         141.5284  140.8622  171.1619 C.ar    1  UNL1        0.1007
      6 C         140.4370  140.2095  170.3665 C.ar    1  UNL1        0.0223
      7 C         140.4004  140.3647  168.8750 C.ar    1  UNL1        0.0223
      8 C         141.4552  141.1727  168.1790 C.ar    1  UNL1        0.1016
      9 N         141.6770  141.4999  166.7320 N.ar    1  UNL1       -0.2839
     10 C         140.8206  141.0510  165.5852 C.ar    1  UNL1        0.0658
     11 C         140.9919  139.6742  165.0153 C.ar    1  UNL1        0.0173
     12 C         140.1356  139.2252  163.8685 C.ar    1  UNL1       -0.0028
     13 C         139.1079  140.1532  163.2916 C.ar    1  UNL1       -0.0224
     14 C         138.9366  141.5301  163.8616 C.ar    1  UNL1       -0.0026
     15 C         137.9089  142.4581  163.2847 C.ar    1  UNL1       -0.0003
     16 C         137.7376  143.8349  163.8547 C.ar    1  UNL1       -0.0000
     17 C         138.5940  144.2838  165.0015 C.ar    1  UNL1        0.0000
     18 C         139.6216  143.3559  165.5783 C.ar    1  UNL1        0.0014
     19 C         139.7929  141.9790  165.0084 C.ar    1  UNL1        0.0159
     20 C         138.2516  139.7043  162.1449 C.3     1  UNL1        0.0224
     21 C         137.4383  138.6400  161.4697 C.3     1  UNL1        0.0047
     22 C         137.5816  139.9910  160.8338 C.3     1  UNL1        0.0047
     23 S         143.4934  142.9110  165.3702 S.3     1  UNL1       -0.0722
     24 C         144.4360  140.5643  164.7748 C.3     1  UNL1        0.0181
     25 C         144.2470  142.0129  164.4346 C.3     1  UNL1        0.0910
     26 C         144.8116  142.5635  163.1585 C.2     1  UNL1        0.0605
     27 O         145.7113  141.7156  162.3091 O.co2   1  UNL1       -0.5483
     28 O         144.4764  143.9619  162.7320 O.co2   1  UNL1       -0.5483
@<TRIPOS>UNITY_ATOM_ATTR
27 1
charge -1
@<TRIPOS>BOND
     1    24    25    1
     2    25    23    1
     3    23     1    1
     4     1     2   ar
     5     2     3   ar
     6     3     4   ar
     7     4     5   ar
     8     5     6   ar
     9     6     7   ar
    10     7     8   ar
    11     8     9   ar
    12     9    10    1
    13    10    11   ar
    14    11    12   ar
    15    12    13   ar
    16    13    20    1
    17    20    21    1
    18    21    22    1
    19    13    14   ar
    20    14    15   ar
    21    15    16   ar
    22    16    17   ar
    23    17    18   ar
    24    18    19   ar
    25    25    26    1
    26    26    27   ar
    27    26    28   ar
    28     9     1   ar
    29    19    10   ar
    30     8     3   ar
    31    22    20    1
    32    19    14   ar
@<TRIPOS>MOLECULE
*****
 28 32 0 0 0
SMALL
GASTEIGER

@<TRIPOS>ATOM
      1 C         142.7596  139.7769  166.1984 C.ar    1  UNL1        0.1770
      2 N         142.9961  139.1313  167.5316 N.ar    1  UNL1       -0.2018
      3 C         142.4791  140.0567  168.5929 C.ar    1  UNL1        0.1806
      4 N         142.4428  139.9481  170.0885 N.ar    1  UNL1       -0.2238
      5 C         141.8505  141.0569  170.9069 C.ar    1  UNL1        0.1007
      6 C         141.2945  142.2744  170.2296 C.ar    1  UNL1        0.0223
      7 C         141.3308  142.3830  168.7340 C.ar    1  UNL1        0.0223
      8 C         141.9231  141.2742  167.9156 C.ar    1  UNL1        0.1016
      9 N         142.0965  141.1012  166.4358 N.ar    1  UNL1       -0.2839
     10 C         141.6799  142.0807  165.3788 C.ar    1  UNL1        0.0658
     11 C         142.6299  143.1525  164.9332 C.ar    1  UNL1        0.0173
     12 C         142.2132  144.1319  163.8763 C.ar    1  UNL1       -0.0028
     13 C         140.8466  144.0395  163.2649 C.ar    1  UNL1       -0.0224
     14 C         139.8965  142.9676  163.7105 C.ar    1  UNL1       -0.0026
     15 C         138.5299  142.8752  163.0992 C.ar    1  UNL1       -0.0003
     16 C         137.5799  141.8034  163.5448 C.ar    1  UNL1       -0.0000
     17 C         137.9966  140.8239  164.6017 C.ar    1  UNL1        0.0000
     18 C         139.3632  140.9164  165.2131 C.ar    1  UNL1        0.0014
     19 C         140.3132  141.9882  164.7675 C.ar    1  UNL1        0.0159
     20 C         140.4300  145.0190  162.2080 C.3     1  UNL1        0.0224
     21 C         140.4526  145.4768  160.7797 C.3     1  UNL1        0.0047
     22 C         139.6858  146.2575  161.8056 C.3     1  UNL1        0.0047
     23 S         143.1226  139.1994  164.8625 S.3     1  UNL1       -0.0722
     24 C         140.9851  137.7226  164.8761 C.3     1  UNL1        0.0181
     25 C         142.1537  138.3097  164.1416 C.3     1  UNL1        0.0910
     26 C         142.3536  138.0070  162.6860 C.2     1  UNL1        0.0605
     27 O         141.1803  137.6324  161.8299 O.co2   1  UNL1       -0.5483
     28 O         143.7268  138.0790  162.0868 O.co2   1  UNL1       -0.5483
@<TRIPOS>UNITY_ATOM_ATTR
27 1
charge -1
@<TRIPOS>BOND
     1    24    25    1
     2    25    23    1
     3    23     1    1
     4     1     2   ar
     5     2     3   ar
     6     3     4   ar
     7     4     5   ar
     8     5     6   ar
     9     6     7   ar
    10     7     8   ar
    11     8     9   ar
    12     9    10    1
    13    10    11   ar
    14    11    12   ar
    15    12    13   ar
    16    13    20    1
    17    20    21    1
    18    21    22    1
    19    13    14   ar
    20    14    15   ar
    21    15    16   ar
    22    16    17   ar
    23    17    18   ar
    24    18    19   ar
    25    25    26    1
    26    26    27   ar
    27    26    28   ar
    28     9     1   ar
    29    19    10   ar
    30     8     3   ar
    31    22    20    1
    32    19    14   ar
@<TRIPOS>MOLECULE
*****
 28 32 0 0 0
SMALL
GASTEIGER

@<TRIPOS>ATOM
      1 C         141.9429  142.4334  162.0568 C.ar    1  UNL1        0.1770
      2 N         141.7334  141.8523  160.6899 N.ar    1  UNL1       -0.2018
      3 C         140.6054  140.8670  160.7730 C.ar    1  UNL1        0.1806
      4 N         139.9593  139.9915  159.7405 N.ar    1  UNL1       -0.2238
      5 C         138.8257  139.0883  160.1263 C.ar    1  UNL1        0.1007
      6 C         138.3381  139.0604  161.5446 C.ar    1  UNL1        0.0223
      7 C         138.9842  139.9359  162.5771 C.ar    1  UNL1        0.0223
      8 C         140.1179  140.8392  162.1913 C.ar    1  UNL1        0.1016
      9 N         140.9445  141.8073  162.9848 N.ar    1  UNL1       -0.2839
     10 C         140.7983  142.0982  164.4490 C.ar    1  UNL1        0.0658
     11 C         139.9791  143.2699  164.9028 C.ar    1  UNL1        0.0173
     12 C         139.8329  143.5607  166.3670 C.ar    1  UNL1       -0.0028
     13 C         140.5060  142.6799  167.3775 C.ar    1  UNL1       -0.0224
     14 C         141.3252  141.5081  166.9237 C.ar    1  UNL1       -0.0026
     15 C         141.9982  140.6273  167.9342 C.ar    1  UNL1       -0.0003
     16 C         142.8174  139.4556  167.4804 C.ar    1  UNL1       -0.0000
     17 C         142.9636  139.1647  166.0162 C.ar    1  UNL1        0.0000
     18 C         142.2906  140.0455  165.0057 C.ar    1  UNL1        0.0014
     19 C         141.4714  141.2172  165.4595 C.ar    1  UNL1        0.0159
     20 C         140.3598  142.9708  168.8418 C.3     1  UNL1        0.0224
     21 C         140.4636  143.9268  169.9929 C.3     1  UNL1        0.0047
     22 C         140.0028  142.5186  170.2267 C.3     1  UNL1        0.0047
     23 S         142.9705  143.4604  162.4302 S.3     1  UNL1       -0.0722
     24 C         144.1447  143.7112  164.7341 C.3     1  UNL1        0.0181
     25 C         144.0860  143.0997  163.3658 C.3     1  UNL1        0.0910
     26 C         145.1430  142.1273  162.9328 C.2     1  UNL1        0.0605
     27 O         145.9960  141.4410  163.9582 O.co2   1  UNL1       -0.5483
     28 O         145.3470  141.8412  161.4746 O.co2   1  UNL1       -0.5483
@<TRIPOS>UNITY_ATOM_ATTR
27 1
charge -1
@<TRIPOS>BOND
     1    24    25    1
     2    25    23    1
     3    23     1    1
     4     1     2   ar
     5     2     3   ar
     6     3     4   ar
     7     4     5   ar
     8     5     6   ar
     9     6     7   ar
    10     7     8   ar
    11     8     9   ar
    12     9    10    1
    13    10    11   ar
    14    11    12   ar
    15    12    13   ar
    16    13    20    1
    17    20    21    1
    18    21    22    1
    19    13    14   ar
    20    14    15   ar
    21    15    16   ar
    22    16    17   ar
    23    17    18   ar
    24    18    19   ar
    25    25    26    1
    26    26    27   ar
    27    26    28   ar
    28     9     1   ar
    29    19    10   ar
    30     8     3   ar
    31    22    20    1
    32    19    14   ar
