@<TRIPOS>MOLECULE
*****
 23 26 0 0 0
SMALL
GASTEIGER

@<TRIPOS>ATOM
      1 C         140.3382  140.4717  170.8138 C.3     1  UNL1        0.0438
      2 C         140.9148  141.0429  169.5523 C.3     1  UNL1        0.1397
      3 C         141.7931  141.7129  170.5670 C.3     1  UNL1        0.0438
      4 O         141.7964  141.8468  168.6432 O.3     1  UNL1       -0.4826
      5 C         141.5995  141.7823  167.1576 C.ar    1  UNL1        0.1360
      6 C         142.4812  142.5862  166.2486 C.ar    1  UNL1        0.0371
      7 C         142.2842  142.5216  164.7630 C.ar    1  UNL1        0.0098
      8 C         141.2056  141.6532  164.1864 C.ar    1  UNL1        0.0345
      9 BR        141.0086  141.5886  162.7008 Br      1  UNL1       -0.0490
     10 C         140.3239  140.8493  165.0955 C.ar    1  UNL1        0.0073
     11 C         140.5209  140.9138  166.5811 C.ar    1  UNL1        0.0334
     12 C         139.6392  140.1099  167.4902 C.3     1  UNL1        0.1258
     13 C         139.3250  139.9448  166.0327 C.3     1  UNL1        0.0918
     14 S         138.1770  138.9869  165.9117 S.3     1  UNL1       -0.0785
     15 C         137.7817  138.5601  167.2943 C.2     1  UNL1        0.1483
     16 N         136.6767  137.6066  167.6405 N.pl3   1  UNL1       -0.3380
     17 N         138.6854  139.2541  168.2699 N.2     1  UNL1       -0.2497
     18 C         139.8362  140.1745  168.9758 C.3     1  UNL1        0.1114
     19 C         140.0822  140.3988  168.7222 C.3     1  UNL1        0.1500
     20 O         139.8236  140.1630  168.9888 O.3     1  UNL1       -0.3532
     21 C         140.0822  140.3988  168.7222 C.3     1  UNL1        0.1500
     22 H         136.1355  137.1998  166.9257 H       1  UNL1        0.1442
     23 H         136.4927  137.3875  168.5825 H       1  UNL1        0.1442
@<TRIPOS>BOND
     1     1     2    1
     2     2     3    1
     3     2     4    1
     4     4     5    1
     5     5     6   ar
     6     6     7   ar
     7     7     8   ar
     8     8     9    1
     9     8    10   ar
    10    10    11   ar
    11    11    12    1
    12    12    13    1
    13    13    14    1
    14    14    15    1
    15    15    16    1
    16    15    17    2
    17    12    18    1
    18    18    19    1
    19    19    20    1
    20    20    21    1
    21    18     2    1
    22    11     5   ar
    23    17    12    1
    24    21    18    1
    25    16    22    1
    26    16    23    1
@<TRIPOS>MOLECULE
*****
 23 26 0 0 0
SMALL
GASTEIGER

@<TRIPOS>ATOM
      1 C         138.0565  138.9544  167.5172 C.3     1  UNL1        0.0438
      2 C         139.1448  139.4501  166.6116 C.3     1  UNL1        0.1397
      3 C         138.4634  138.4796  165.6931 C.3     1  UNL1        0.0438
      4 O         139.9965  139.6088  165.3871 O.3     1  UNL1       -0.4826
      5 C         141.1515  140.5657  165.3956 C.ar    1  UNL1        0.1360
      6 C         142.0031  140.7244  164.1711 C.ar    1  UNL1        0.0371
      7 C         143.1581  141.6814  164.1796 C.ar    1  UNL1        0.0098
      8 C         143.4616  142.4797  165.4128 C.ar    1  UNL1        0.0345
      9 BR        144.6166  143.4367  165.4213 Br      1  UNL1       -0.0490
     10 C         142.6099  142.3211  166.6373 C.ar    1  UNL1        0.0073
     11 C         141.4549  141.3641  166.6287 C.ar    1  UNL1        0.0334
     12 C         140.6032  141.2054  167.8533 C.3     1  UNL1        0.1258
     13 C         141.7189  142.1958  168.0102 C.3     1  UNL1        0.0918
     14 S         141.6494  142.7560  169.4000 S.3     1  UNL1       -0.0785
     15 C         140.4908  142.1119  170.1020 C.2     1  UNL1        0.1483
     16 N         140.0553  142.3792  171.5123 N.pl3   1  UNL1       -0.3380
     17 N         139.8442  141.1536  169.1461 N.2     1  UNL1       -0.2497
     18 C         139.4482  140.2485  167.8447 C.3     1  UNL1        0.1114
     19 C         139.6858  140.2927  167.5031 C.3     1  UNL1        0.1500
     20 O         139.4361  140.2462  167.8622 O.3     1  UNL1       -0.3532
     21 C         139.6858  140.2927  167.5031 C.3     1  UNL1        0.1500
     22 H         140.5465  143.0298  172.0642 H       1  UNL1        0.1442
     23 H         139.2783  141.9040  171.8859 H       1  UNL1        0.1442
@<TRIPOS>BOND
     1     1     2    1
     2     2     3    1
     3     2     4    1
     4     4     5    1
     5     5     6   ar
     6     6     7   ar
     7     7     8   ar
     8     8     9    1
     9     8    10   ar
    10    10    11   ar
    11    11    12    1
    12    12    13    1
    13    13    14    1
    14    14    15    1
    15    15    16    1
    16    15    17    2
    17    12    18    1
    18    18    19    1
    19    19    20    1
    20    20    21    1
    21    18     2    1
    22    11     5   ar
    23    17    12    1
    24    21    18    1
    25    16    22    1
    26    16    23    1
@<TRIPOS>MOLECULE
*****
 23 26 0 0 0
SMALL
GASTEIGER

@<TRIPOS>ATOM
      1 C         143.8665  138.2828  166.4342 C.3     1  UNL1        0.0438
      2 C         143.2494  139.4505  165.7230 C.3     1  UNL1        0.1397
      3 C         144.2091  138.9815  164.6699 C.3     1  UNL1        0.0438
      4 O         142.9658  140.4554  164.6460 O.3     1  UNL1       -0.4826
      5 C         141.9367  141.5236  164.8692 C.ar    1  UNL1        0.1360
      6 C         141.6530  142.5284  163.7922 C.ar    1  UNL1        0.0371
      7 C         140.6240  143.5967  164.0154 C.ar    1  UNL1        0.0098
      8 C         139.8786  143.6602  165.3156 C.ar    1  UNL1        0.0345
      9 BR        138.8495  144.7284  165.5387 Br      1  UNL1       -0.0490
     10 C         140.1623  142.6554  166.3925 C.ar    1  UNL1        0.0073
     11 C         141.1914  141.5871  166.1693 C.ar    1  UNL1        0.0334
     12 C         141.4751  140.5822  167.2463 C.3     1  UNL1        0.1258
     13 C         140.4237  141.5879  167.6118 C.3     1  UNL1        0.0918
     14 S         139.9490  141.2783  169.0007 S.3     1  UNL1       -0.0785
     15 C         140.7069  140.0814  169.4936 C.2     1  UNL1        0.1483
     16 N         140.5494  139.4292  170.8351 N.pl3   1  UNL1       -0.3380
     17 N         141.6501  139.6512  168.4093 N.2     1  UNL1       -0.2497
     18 C         142.5041  139.5140  167.0231 C.3     1  UNL1        0.1114
     19 C         142.4249  139.7943  166.7226 C.3     1  UNL1        0.1500
     20 O         142.5081  139.4996  167.0385 O.3     1  UNL1       -0.3532
     21 C         142.4249  139.7943  166.7226 C.3     1  UNL1        0.1500
     22 H         139.9002  139.7868  171.4831 H       1  UNL1        0.1442
     23 H         141.0953  138.6436  171.0677 H       1  UNL1        0.1442
@<TRIPOS>BOND
     1     1     2    1
     2     2     3    1
     3     2     4    1
     4     4     5    1
     5     5     6   ar
     6     6     7   ar
     7     7     8   ar
     8     8     9    1
     9     8    10   ar
    10    10    11   ar
    11    11    12    1
    12    12    13    1
    13    13    14    1
    14    14    15    1
    15    15    16    1
    16    15    17    2
    17    12    18    1
    18    18    19    1
    19    19    20    1
    20    20    21    1
    21    18     2    1
    22    11     5   ar
    23    17    12    1
    24    21    18    1
    25    16    22    1
    26    16    23    1
@<TRIPOS>MOLECULE
*****
 23 26 0 0 0
SMALL
GASTEIGER

@<TRIPOS>ATOM
      1 C         144.7393  143.3364  165.6958 C.3     1  UNL1        0.0438
      2 C         143.5953  142.4513  165.2980 C.3     1  UNL1        0.1397
      3 C         144.2383  142.6636  163.9595 C.3     1  UNL1        0.0438
      4 O         142.6747  141.6401  164.4352 O.3     1  UNL1       -0.4826
      5 C         141.5084  140.9239  165.0492 C.ar    1  UNL1        0.1360
      6 C         140.5878  140.1127  164.1864 C.ar    1  UNL1        0.0371
      7 C         139.4216  139.3965  164.8004 C.ar    1  UNL1        0.0098
      8 C         139.1758  139.4917  166.2771 C.ar    1  UNL1        0.0345
      9 BR        138.0096  138.7756  166.8910 Br      1  UNL1       -0.0490
     10 C         140.0965  140.3030  167.1398 C.ar    1  UNL1        0.0073
     11 C         141.2628  141.0191  166.5258 C.ar    1  UNL1        0.0334
     12 C         142.1834  141.8304  167.3885 C.3     1  UNL1        0.1258
     13 C         141.0642  141.1729  168.1404 C.3     1  UNL1        0.0918
     14 S         141.2029  141.5359  169.5892 S.3     1  UNL1       -0.0785
     15 C         142.4077  142.4178  169.7328 C.2     1  UNL1        0.1483
     16 N         142.9172  143.0131  171.0119 N.pl3   1  UNL1       -0.3380
     17 N         143.0137  142.5998  168.3727 N.2     1  UNL1       -0.2497
     18 C         143.3497  142.5465  166.7746 C.3     1  UNL1        0.1114
     19 C         143.0928  142.3202  166.5339 C.3     1  UNL1        0.1500
     20 O         143.3628  142.5581  166.7869 O.3     1  UNL1       -0.3532
     21 C         143.0928  142.3202  166.5339 C.3     1  UNL1        0.1500
     22 H         142.4482  142.8347  171.8590 H       1  UNL1        0.1442
     23 H         143.7205  143.5822  171.0043 H       1  UNL1        0.1442
@<TRIPOS>BOND
     1     1     2    1
     2     2     3    1
     3     2     4    1
     4     4     5    1
     5     5     6   ar
     6     6     7   ar
     7     7     8   ar
     8     8     9    1
     9     8    10   ar
    10    10    11   ar
    11    11    12    1
    12    12    13    1
    13    13    14    1
    14    14    15    1
    15    15    16    1
    16    15    17    2
    17    12    18    1
    18    18    19    1
    19    19    20    1
    20    20    21    1
    21    18     2    1
    22    11     5   ar
    23    17    12    1
    24    21    18    1
    25    16    22    1
    26    16    23    1
@<TRIPOS>MOLECULE
*****
 23 26 0 0 0
SMALL
GASTEIGER

@<TRIPOS>ATOM
      1 C         138.4945  138.4180  165.2572 C.3     1  UNL1        0.0438
      2 C         138.8118  139.0511  166.5797 C.3     1  UNL1        0.1397
      3 C         137.5761  138.2846  166.9475 C.3     1  UNL1        0.0438
      4 O         138.6999  139.4179  168.0298 O.3     1  UNL1       -0.4826
      5 C         139.7135  140.3313  168.6528 C.ar    1  UNL1        0.1360
      6 C         139.6016  140.6981  170.1029 C.ar    1  UNL1        0.0371
      7 C         140.6152  141.6116  170.7259 C.ar    1  UNL1        0.0098
      8 C         141.7409  142.1583  169.8987 C.ar    1  UNL1        0.0345
      9 BR        142.7545  143.0717  170.5217 Br      1  UNL1       -0.0490
     10 C         141.8528  141.7915  168.4486 C.ar    1  UNL1        0.0073
     11 C         140.8391  140.8780  167.8256 C.ar    1  UNL1        0.0334
     12 C         140.9510  140.5112  166.3755 C.3     1  UNL1        0.1258
     13 C         142.0339  141.4305  166.8576 C.3     1  UNL1        0.0918
     14 S         142.9435  141.7220  165.7009 S.3     1  UNL1       -0.0785
     15 C         142.4229  140.9828  164.5040 C.2     1  UNL1        0.1483
     16 N         143.0275  140.9906  163.1313 N.pl3   1  UNL1       -0.3380
     17 N         141.1914  140.2345  164.9209 N.2     1  UNL1       -0.2497
     18 C         139.9374  139.5977  165.7525 C.3     1  UNL1        0.1114
     19 C         139.9062  139.7001  166.1571 C.3     1  UNL1        0.1500
     20 O         139.9390  139.5925  165.7318 O.3     1  UNL1       -0.3532
     21 C         139.9062  139.7001  166.1571 C.3     1  UNL1        0.1500
     22 H         143.8414  141.5157  162.9549 H       1  UNL1        0.1442
     23 H         142.6105  140.4706  162.4068 H       1  UNL1        0.1442
@<TRIPOS>BOND
     1     1     2    1
     2     2     3    1
     3     2     4    1
     4     4     5    1
     5     5     6   ar
     6     6     7   ar
     7     7     8   ar
     8     8     9    1
     9     8    10   ar
    10    10    11   ar
    11    11    12    1
    12    12    13    1
    13    13    14    1
    14    14    15    1
    15    15    16    1
    16    15    17    2
    17    12    18    1
    18    18    19    1
    19    19    20    1
    20    20    21    1
    21    18     2    1
    22    11     5   ar
    23    17    12    1
    24    21    18    1
    25    16    22    1
    26    16    23    1
@<TRIPOS>MOLECULE
*****
 23 26 0 0 0
SMALL
GASTEIGER

@<TRIPOS>ATOM
      1 C         142.7968  141.1794  167.9918 C.3     1  UNL1        0.0438
      2 C         141.7884  142.0183  167.2641 C.3     1  UNL1        0.1397
      3 C         141.0238  141.7230  168.5203 C.3     1  UNL1        0.0438
      4 O         140.5144  142.7545  166.9727 O.3     1  UNL1       -0.4826
      5 C         140.3552  143.4947  165.6779 C.ar    1  UNL1        0.1360
      6 C         139.0812  144.2310  165.3865 C.ar    1  UNL1        0.0371
      7 C         138.9221  144.9712  164.0917 C.ar    1  UNL1        0.0098
      8 C         140.0369  144.9752  163.0881 C.ar    1  UNL1        0.0345
      9 BR        139.8778  145.7154  161.7932 Br      1  UNL1       -0.0490
     10 C         141.3109  144.2389  163.3794 C.ar    1  UNL1        0.0073
     11 C         141.4700  143.4987  164.6744 C.ar    1  UNL1        0.0334
     12 C         142.7440  142.7624  164.9657 C.3     1  UNL1        0.1258
     13 C         142.7300  143.4544  163.6348 C.3     1  UNL1        0.0918
     14 S         144.0460  143.1947  162.9634 S.3     1  UNL1       -0.0785
     15 C         144.8734  142.3423  163.8792 C.2     1  UNL1        0.1483
     16 N         146.2616  141.8444  163.6056 N.pl3   1  UNL1       -0.3380
     17 N         144.0687  142.0751  165.1167 N.2     1  UNL1       -0.2497
     18 C         142.9032  142.0222  166.2606 C.3     1  UNL1        0.1114
     19 C         142.5477  142.2276  166.1793 C.3     1  UNL1        0.1500
     20 O         142.9214  142.0117  166.2647 O.3     1  UNL1       -0.3532
     21 C         142.5477  142.2276  166.1793 C.3     1  UNL1        0.1500
     22 H         146.7092  142.0744  162.7594 H       1  UNL1        0.1442
     23 H         146.7252  141.2877  164.2723 H       1  UNL1        0.1442
@<TRIPOS>BOND
     1     1     2    1
     2     2     3    1
     3     2     4    1
     4     4     5    1
     5     5     6   ar
     6     6     7   ar
     7     7     8   ar
     8     8     9    1
     9     8    10   ar
    10    10    11   ar
    11    11    12    1
    12    12    13    1
    13    13    14    1
    14    14    15    1
    15    15    16    1
    16    15    17    2
    17    12    18    1
    18    18    19    1
    19    19    20    1
    20    20    21    1
    21    18     2    1
    22    11     5   ar
    23    17    12    1
    24    21    18    1
    25    16    22    1
    26    16    23    1
@<TRIPOS>MOLECULE
*****
 23 26 0 0 0
SMALL
GASTEIGER

@<TRIPOS>ATOM
      1 C         140.2775  143.2943  169.8351 C.3     1  UNL1        0.0438
      2 C         141.0005  142.1376  169.2109 C.3     1  UNL1        0.1397
      3 C         141.2162  141.8271  170.6624 C.3     1  UNL1        0.0438
      4 O         141.7983  140.8730  169.0909 O.3     1  UNL1       -0.4826
      5 C         142.1293  140.3208  167.7362 C.ar    1  UNL1        0.1360
      6 C         142.9271  139.0562  167.6162 C.ar    1  UNL1        0.0371
      7 C         143.2581  138.5039  166.2615 C.ar    1  UNL1        0.0098
      8 C         142.7913  139.2162  165.0266 C.ar    1  UNL1        0.0345
      9 BR        143.1223  138.6639  163.6719 Br      1  UNL1       -0.0490
     10 C         141.9934  140.4807  165.1466 C.ar    1  UNL1        0.0073
     11 C         141.6624  141.0330  166.5014 C.ar    1  UNL1        0.0334
     12 C         140.8646  142.2975  166.6214 C.3     1  UNL1        0.1258
     13 C         141.1174  141.8676  165.2067 C.3     1  UNL1        0.0918
     14 S         140.4720  142.8692  164.2954 S.3     1  UNL1       -0.0785
     15 C         139.8203  143.9181  165.1469 C.2     1  UNL1        0.1483
     16 N         139.0595  145.1108  164.6483 N.pl3   1  UNL1       -0.3380
     17 N         140.0629  143.5648  166.5844 N.2     1  UNL1       -0.2497
     18 C         140.5336  142.8498  167.9761 C.3     1  UNL1        0.1114
     19 C         140.7562  142.4970  167.9427 C.3     1  UNL1        0.1500
     20 O         140.5222  142.8679  167.9778 O.3     1  UNL1       -0.3532
     21 C         140.7562  142.4970  167.9427 C.3     1  UNL1        0.1500
     22 H         138.9536  145.2579  163.6807 H       1  UNL1        0.1442
     23 H         138.6661  145.7467  165.2888 H       1  UNL1        0.1442
@<TRIPOS>BOND
     1     1     2    1
     2     2     3    1
     3     2     4    1
     4     4     5    1
     5     5     6   ar
     6     6     7   ar
     7     7     8   ar
     8     8     9    1
     9     8    10   ar
    10    10    11   ar
    11    11    12    1
    12    12    13    1
    13    13    14    1
    14    14    15    1
    15    15    16    1
    16    15    17    2
    17    12    18    1
    18    18    19    1
    19    19    20    1
    20    20    21    1
    21    18     2    1
    22    11     5   ar
    23    17    12    1
    24    21    18    1
    25    16    22    1
    26    16    23    1
@<TRIPOS>MOLECULE
*****
 23 26 0 0 0
SMALL
GASTEIGER

@<TRIPOS>ATOM
      1 C         137.5232  143.9877  164.1348 C.3     1  UNL1        0.0438
      2 C         138.7142  143.4870  164.8970 C.3     1  UNL1        0.1397
      3 C         138.6080  144.8730  165.4606 C.3     1  UNL1        0.0438
      4 O         139.8683  143.4677  165.8550 O.3     1  UNL1       -0.4826
      5 C         140.7150  142.2364  165.9846 C.ar    1  UNL1        0.1360
      6 C         141.8690  142.2171  166.9426 C.ar    1  UNL1        0.0371
      7 C         142.7157  140.9858  167.0722 C.ar    1  UNL1        0.0098
      8 C         142.4083  139.7736  166.2438 C.ar    1  UNL1        0.0345
      9 BR        143.2550  138.5422  166.3735 Br      1  UNL1       -0.0490
     10 C         141.2542  139.7928  165.2859 C.ar    1  UNL1        0.0073
     11 C         140.4075  141.0243  165.1563 C.ar    1  UNL1        0.0334
     12 C         139.2535  141.0435  164.1983 C.3     1  UNL1        0.1258
     13 C         140.0073  139.7468  164.2194 C.3     1  UNL1        0.0918
     14 S         139.3579  138.8171  163.2374 S.3     1  UNL1       -0.0785
     15 C         138.2028  139.5392  162.6095 C.2     1  UNL1        0.1483
     16 N         137.2752  138.9829  161.5703 N.pl3   1  UNL1       -0.3380
     17 N         138.1382  140.9152  163.2034 N.2     1  UNL1       -0.2497
     18 C         138.4068  142.2749  164.0687 C.3     1  UNL1        0.1114
     19 C         138.7288  142.2695  164.3359 C.3     1  UNL1        0.1500
     20 O         138.3903  142.2752  164.0550 O.3     1  UNL1       -0.3532
     21 C         138.7288  142.2695  164.3359 C.3     1  UNL1        0.1500
     22 H         137.3992  138.0634  161.2413 H       1  UNL1        0.1442
     23 H         136.5422  139.5374  161.2173 H       1  UNL1        0.1442
@<TRIPOS>BOND
     1     1     2    1
     2     2     3    1
     3     2     4    1
     4     4     5    1
     5     5     6   ar
     6     6     7   ar
     7     7     8   ar
     8     8     9    1
     9     8    10   ar
    10    10    11   ar
    11    11    12    1
    12    12    13    1
    13    13    14    1
    14    14    15    1
    15    15    16    1
    16    15    17    2
    17    12    18    1
    18    18    19    1
    19    19    20    1
    20    20    21    1
    21    18     2    1
    22    11     5   ar
    23    17    12    1
    24    21    18    1
    25    16    22    1
    26    16    23    1
@<TRIPOS>MOLECULE
*****
 23 26 0 0 0
SMALL
GASTEIGER

@<TRIPOS>ATOM
      1 C         143.7253  144.8095  164.1518 C.3     1  UNL1        0.0438
      2 C         143.2481  143.5941  164.8903 C.3     1  UNL1        0.1397
      3 C         144.6853  143.6123  165.3194 C.3     1  UNL1        0.0438
      4 O         143.2702  142.3851  165.7779 O.3     1  UNL1       -0.4826
      5 C         142.0208  141.5800  165.9798 C.ar    1  UNL1        0.1360
      6 C         142.0429  140.3710  166.8673 C.ar    1  UNL1        0.0371
      7 C         140.7935  139.5659  167.0693 C.ar    1  UNL1        0.0098
      8 C         139.5220  139.9699  166.3837 C.ar    1  UNL1        0.0345
      9 BR        138.2726  139.1648  166.5856 Br      1  UNL1       -0.0490
     10 C         139.4999  141.1789  165.4961 C.ar    1  UNL1        0.0073
     11 C         140.7494  141.9840  165.2942 C.ar    1  UNL1        0.0334
     12 C         140.7273  143.1930  164.4067 C.3     1  UNL1        0.1258
     13 C         139.4065  142.4897  164.5125 C.3     1  UNL1        0.0918
     14 S         138.4162  143.2333  163.6661 S.3     1  UNL1       -0.0785
     15 C         139.1248  144.3961  163.0371 C.2     1  UNL1        0.1483
     16 N         138.5127  145.4064  162.1127 N.pl3   1  UNL1       -0.3380
     17 N         140.5532  144.3712  163.4948 N.2     1  UNL1       -0.2497
     18 C         141.9767  143.9981  164.2047 C.3     1  UNL1        0.1114
     19 C         141.9828  143.6608  164.4523 C.3     1  UNL1        0.1500
     20 O         141.9763  144.0153  164.1921 O.3     1  UNL1       -0.3532
     21 C         141.9828  143.6608  164.4523 C.3     1  UNL1        0.1500
     22 H         137.5611  145.3382  161.8695 H       1  UNL1        0.1442
     23 H         139.0624  146.1377  161.7492 H       1  UNL1        0.1442
@<TRIPOS>BOND
     1     1     2    1
     2     2     3    1
     3     2     4    1
     4     4     5    1
     5     5     6   ar
     6     6     7   ar
     7     7     8   ar
     8     8     9    1
     9     8    10   ar
    10    10    11   ar
    11    11    12    1
    12    12    13    1
    13    13    14    1
    14    14    15    1
    15    15    16    1
    16    15    17    2
    17    12    18    1
    18    18    19    1
    19    19    20    1
    20    20    21    1
    21    18     2    1
    22    11     5   ar
    23    17    12    1
    24    21    18    1
    25    16    22    1
    26    16    23    1
