@<TRIPOS>MOLECULE
*****
 42 44 0 0 0
SMALL
GASTEIGER

@<TRIPOS>ATOM
      1 C         140.4180  141.3379  164.9535 C.3     1  UNL1        0.1151
      2 C         141.8474  141.6417  164.6151 C.ar    1  UNL1        0.0015
      3 C         142.8956  140.5791  164.7640 C.ar    1  UNL1        0.0273
      4 C         144.3250  140.8829  164.4257 C.ar    1  UNL1        0.1398
      5 F         145.3731  139.8202  164.5745 F       1  UNL1       -0.2042
      6 C         144.7062  142.2493  163.9384 C.ar    1  UNL1        0.0335
      7 C         143.6581  143.3120  163.7896 C.ar    1  UNL1        0.0734
      8 C         142.2287  143.0082  164.1279 C.ar    1  UNL1        0.0016
      9 C         144.0394  144.6785  163.3023 C.3     1  UNL1        0.4186
     10 F         144.4207  146.0450  162.8152 F       1  UNL1       -0.1659
     11 F         144.8463  144.0601  162.1994 F       1  UNL1       -0.1659
     12 F         143.2325  145.2969  164.4052 F       1  UNL1       -0.1659
     13 C         140.0331  141.5520  163.5196 C.ar    1  UNL1        0.0792
     14 C         139.0431  142.6200  163.1602 C.ar    1  UNL1        0.0175
     15 C         138.6582  142.8341  161.7263 C.ar    1  UNL1        0.0142
     16 C         139.2634  141.9801  160.6518 C.ar    1  UNL1        0.0768
     17 CL        138.8785  142.1942  159.2179 Cl      1  UNL1       -0.0806
     18 C         140.2534  140.9121  161.0112 C.ar    1  UNL1        0.1098
     19 N         140.6383  140.6980  162.4451 N.ar    1  UNL1       -0.2454
     20 O         140.4074  142.9963  167.3278 O.2     1  UNL1       -0.2750
     21 C         140.6610  142.2421  167.3770 C.2     1  UNL1        0.2259
     22 N         140.8028  141.1238  166.3873 N.am    1  UNL1       -0.2989
     23 H         141.1486  140.2493  166.6789 H       1  UNL1        0.1500
     24 C         141.0458  142.0280  168.8109 C.3     1  UNL1        0.1291
     25 C         141.5797  140.6979  169.2536 C.3     1  UNL1        0.2722
     26 O         142.9339  141.0647  168.7228 O.3     1  UNL1       -0.3725
     27 H         142.9003  141.9547  168.3385 H       1  UNL1        0.2108
     28 C         142.1135  139.3679  169.6963 C.3     1  UNL1        0.4279
     29 F         142.6473  138.0379  170.1390 F       1  UNL1       -0.1672
     30 F         141.9250  139.4570  170.5572 F       1  UNL1       -0.1672
     31 F         142.5007  139.0525  168.2818 F       1  UNL1       -0.1672
     32 C         140.2255  140.3311  169.7844 C.3     1  UNL1        0.4279
     33 F         138.8714  139.9643  170.3152 F       1  UNL1       -0.1672
     34 F         140.0715  139.6571  169.2308 F       1  UNL1       -0.1672
     35 F         140.3221  141.4361  170.7943 F       1  UNL1       -0.1672
     36 C         138.9886  141.0341  165.2918 C.3     1  UNL1        0.0543
     37 C         138.5883  139.6398  165.6738 C.ar    1  UNL1       -0.0199
     38 C         137.7579  139.4076  166.9012 C.ar    1  UNL1       -0.0042
     39 C         137.3576  138.0134  167.2832 C.ar    1  UNL1       -0.0003
     40 C         137.7878  136.8514  166.4378 C.ar    1  UNL1       -0.0000
     41 C         138.6183  137.0836  165.2105 C.ar    1  UNL1       -0.0003
     42 C         139.0185  138.4778  164.8285 C.ar    1  UNL1       -0.0042
@<TRIPOS>BOND
     1    20    21    2
     2    21    24    1
     3    24    25    1
     4    25    26    1
     5    25    28    1
     6    28    29    1
     7    28    30    1
     8    28    31    1
     9    25    32    1
    10    32    33    1
    11    32    34    1
    12    32    35    1
    13    21    22   am
    14    22     1    1
    15     1    36    1
    16    36    37    1
    17    37    38   ar
    18    38    39   ar
    19    39    40   ar
    20    40    41   ar
    21    41    42   ar
    22     1     2    1
    23     2     3   ar
    24     3     4   ar
    25     4     5    1
    26     4     6   ar
    27     6     7   ar
    28     7     9    1
    29     9    10    1
    30     9    11    1
    31     9    12    1
    32     7     8   ar
    33     1    13    1
    34    13    14   ar
    35    14    15   ar
    36    15    16   ar
    37    16    17    1
    38    16    18   ar
    39    18    19   ar
    40    42    37   ar
    41     8     2   ar
    42    19    13   ar
    43    26    27    1
    44    22    23    1
@<TRIPOS>MOLECULE
*****
 42 44 0 0 0
SMALL
GASTEIGER

@<TRIPOS>ATOM
      1 C         140.4462  141.5997  165.5248 C.3     1  UNL1        0.1151
      2 C         139.8954  140.2089  165.4132 C.ar    1  UNL1        0.0015
      3 C         140.3444  139.3116  164.2982 C.ar    1  UNL1        0.0273
      4 C         139.7936  137.9209  164.1867 C.ar    1  UNL1        0.1398
      5 F         140.2426  137.0235  163.0717 F       1  UNL1       -0.2042
      6 C         138.7938  137.4275  165.1901 C.ar    1  UNL1        0.0335
      7 C         138.3448  138.3248  166.3051 C.ar    1  UNL1        0.0734
      8 C         138.8956  139.7155  166.4167 C.ar    1  UNL1        0.0016
      9 C         137.3450  137.8313  167.3086 C.3     1  UNL1        0.4186
     10 F         136.3452  137.3379  168.3121 F       1  UNL1       -0.1659
     11 F         137.2454  136.5299  166.5695 F       1  UNL1       -0.1659
     12 F         137.4446  139.1327  168.0477 F       1  UNL1       -0.1659
     13 C         140.9944  141.2737  166.8823 C.ar    1  UNL1        0.0792
     14 C         142.0832  140.2519  167.0260 C.ar    1  UNL1        0.0175
     15 C         142.6314  139.9258  168.3837 C.ar    1  UNL1        0.0142
     16 C         142.0909  140.6216  169.5976 C.ar    1  UNL1        0.0768
     17 CL        142.6391  140.2956  170.9553 Cl      1  UNL1       -0.0806
     18 C         141.0022  141.6434  169.4540 C.ar    1  UNL1        0.1098
     19 N         140.4540  141.9694  168.0964 N.ar    1  UNL1       -0.2454
     20 O         137.9434  142.6860  164.5531 O.2     1  UNL1       -0.2750
     21 C         138.5164  142.4944  164.0330 C.2     1  UNL1        0.2259
     22 N         139.8980  141.9257  164.1672 N.am    1  UNL1       -0.2989
     23 H         140.4449  141.7665  163.3642 H       1  UNL1        0.1500
     24 C         137.9682  142.8205  162.6754 C.3     1  UNL1        0.1291
     25 C         138.0336  141.8023  161.5757 C.3     1  UNL1        0.2722
     26 O         136.9995  140.9750  162.2803 O.3     1  UNL1       -0.3725
     27 H         136.7368  141.4174  163.1026 H       1  UNL1        0.2108
     28 C         138.0990  140.7842  160.4762 C.3     1  UNL1        0.4279
     29 F         138.1643  139.7660  159.3766 F       1  UNL1       -0.1672
     30 F         137.9274  141.3376  159.8062 F       1  UNL1       -0.1672
     31 F         138.3997  139.7148  161.4842 F       1  UNL1       -0.1672
     32 C         139.0676  142.6296  160.8712 C.3     1  UNL1        0.4279
     33 F         140.1017  143.4568  160.1666 F       1  UNL1       -0.1672
     34 F         138.5376  143.3064  160.6580 F       1  UNL1       -0.1672
     35 F         140.0991  141.5763  161.1484 F       1  UNL1       -0.1672
     36 C         140.9970  142.9904  165.6363 C.3     1  UNL1        0.0543
     37 C         142.0672  143.4513  164.6916 C.ar    1  UNL1       -0.0199
     38 C         141.8312  144.6462  163.8162 C.ar    1  UNL1       -0.0042
     39 C         142.9014  145.1070  162.8716 C.ar    1  UNL1       -0.0003
     40 C         144.2076  144.3729  162.8024 C.ar    1  UNL1       -0.0000
     41 C         144.4437  143.1779  163.6779 C.ar    1  UNL1       -0.0003
     42 C         143.3735  142.7171  164.6225 C.ar    1  UNL1       -0.0042
@<TRIPOS>BOND
     1    20    21    2
     2    21    24    1
     3    24    25    1
     4    25    26    1
     5    25    28    1
     6    28    29    1
     7    28    30    1
     8    28    31    1
     9    25    32    1
    10    32    33    1
    11    32    34    1
    12    32    35    1
    13    21    22   am
    14    22     1    1
    15     1    36    1
    16    36    37    1
    17    37    38   ar
    18    38    39   ar
    19    39    40   ar
    20    40    41   ar
    21    41    42   ar
    22     1     2    1
    23     2     3   ar
    24     3     4   ar
    25     4     5    1
    26     4     6   ar
    27     6     7   ar
    28     7     9    1
    29     9    10    1
    30     9    11    1
    31     9    12    1
    32     7     8   ar
    33     1    13    1
    34    13    14   ar
    35    14    15   ar
    36    15    16   ar
    37    16    17    1
    38    16    18   ar
    39    18    19   ar
    40    42    37   ar
    41     8     2   ar
    42    19    13   ar
    43    26    27    1
    44    22    23    1
@<TRIPOS>MOLECULE
*****
 42 44 0 0 0
SMALL
GASTEIGER

@<TRIPOS>ATOM
      1 C         140.1095  141.6945  164.9548 C.3     1  UNL1        0.1151
      2 C         141.4935  142.1717  164.6278 C.ar    1  UNL1        0.0015
      3 C         141.7242  143.6071  164.2584 C.ar    1  UNL1        0.0273
      4 C         143.1080  144.0844  163.9314 C.ar    1  UNL1        0.1398
      5 F         143.3387  145.5198  163.5621 F       1  UNL1       -0.2042
      6 C         144.2613  143.1262  163.9737 C.ar    1  UNL1        0.0335
      7 C         144.0307  141.6908  164.3430 C.ar    1  UNL1        0.0734
      8 C         142.6468  141.2136  164.6701 C.ar    1  UNL1        0.0016
      9 C         145.1841  140.7327  164.3853 C.3     1  UNL1        0.4186
     10 F         146.3374  139.7746  164.4276 F       1  UNL1       -0.1659
     11 F         144.3212  139.7248  165.0850 F       1  UNL1       -0.1659
     12 F         146.0470  141.7405  163.6856 F       1  UNL1       -0.1659
     13 C         139.6868  141.9501  163.5385 C.ar    1  UNL1        0.0792
     14 C         138.5508  142.8869  163.2523 C.ar    1  UNL1        0.0175
     15 C         138.1281  143.1425  161.8360 C.ar    1  UNL1        0.0142
     16 C         138.8413  142.4612  160.7059 C.ar    1  UNL1        0.0768
     17 CL        138.4185  142.7168  159.2895 Cl      1  UNL1       -0.0806
     18 C         139.9772  141.5243  160.9921 C.ar    1  UNL1        0.1098
     19 N         140.4000  141.2687  162.4083 N.ar    1  UNL1       -0.2454
     20 O         140.1105  143.2650  167.3882 O.2     1  UNL1       -0.2750
     21 C         140.3843  142.5165  167.4041 C.2     1  UNL1        0.2259
     22 N         140.5323  141.4389  166.3711 N.am    1  UNL1       -0.2989
     23 H         140.9069  140.5639  166.6227 H       1  UNL1        0.1500
     24 C         140.8071  142.2609  168.8204 C.3     1  UNL1        0.1291
     25 C         141.3682  140.9243  169.2060 C.3     1  UNL1        0.2722
     26 O         142.7212  141.3519  168.7194 O.3     1  UNL1       -0.3725
     27 H         142.6707  142.2589  168.3794 H       1  UNL1        0.2108
     28 C         141.9294  139.5878  169.5916 C.3     1  UNL1        0.4279
     29 F         142.4905  138.2512  169.9772 F       1  UNL1       -0.1672
     30 F         141.7967  139.6627  170.4642 F       1  UNL1       -0.1672
     31 F         142.2247  139.2958  168.1502 F       1  UNL1       -0.1672
     32 C         140.0154  140.4967  169.6926 C.3     1  UNL1        0.4279
     33 F         138.6624  140.0691  170.1793 F       1  UNL1       -0.1672
     34 F         139.9217  139.8004  169.1533 F       1  UNL1       -0.1672
     35 F         140.0090  141.6323  170.6727 F       1  UNL1       -0.1672
     36 C         138.7256  141.2173  165.2818 C.3     1  UNL1        0.0543
     37 C         138.4860  139.7703  165.5964 C.ar    1  UNL1       -0.0199
     38 C         139.0332  138.7056  164.6925 C.ar    1  UNL1       -0.0042
     39 C         138.7935  137.2587  165.0071 C.ar    1  UNL1       -0.0003
     40 C         138.0066  136.8765  166.2256 C.ar    1  UNL1       -0.0000
     41 C         137.4594  137.9412  167.1295 C.ar    1  UNL1       -0.0003
     42 C         137.6991  139.3880  166.8149 C.ar    1  UNL1       -0.0042
@<TRIPOS>BOND
     1    20    21    2
     2    21    24    1
     3    24    25    1
     4    25    26    1
     5    25    28    1
     6    28    29    1
     7    28    30    1
     8    28    31    1
     9    25    32    1
    10    32    33    1
    11    32    34    1
    12    32    35    1
    13    21    22   am
    14    22     1    1
    15     1    36    1
    16    36    37    1
    17    37    38   ar
    18    38    39   ar
    19    39    40   ar
    20    40    41   ar
    21    41    42   ar
    22     1     2    1
    23     2     3   ar
    24     3     4   ar
    25     4     5    1
    26     4     6   ar
    27     6     7   ar
    28     7     9    1
    29     9    10    1
    30     9    11    1
    31     9    12    1
    32     7     8   ar
    33     1    13    1
    34    13    14   ar
    35    14    15   ar
    36    15    16   ar
    37    16    17    1
    38    16    18   ar
    39    18    19   ar
    40    42    37   ar
    41     8     2   ar
    42    19    13   ar
    43    26    27    1
    44    22    23    1
@<TRIPOS>MOLECULE
*****
 42 44 0 0 0
SMALL
GASTEIGER

@<TRIPOS>ATOM
      1 C         140.5103  140.2493  165.3720 C.3     1  UNL1        0.1151
      2 C         141.9615  139.8701  165.3574 C.ar    1  UNL1        0.0015
      3 C         142.4403  138.7043  166.1709 C.ar    1  UNL1        0.0273
      4 C         143.8914  138.3251  166.1563 C.ar    1  UNL1        0.1398
      5 F         144.3702  137.1593  166.9698 F       1  UNL1       -0.2042
      6 C         144.8639  139.1115  165.3282 C.ar    1  UNL1        0.0335
      7 C         144.3851  140.2773  164.5146 C.ar    1  UNL1        0.0734
      8 C         142.9340  140.6565  164.5292 C.ar    1  UNL1        0.0016
      9 C         145.3576  141.0638  163.6865 C.3     1  UNL1        0.4186
     10 F         146.3300  141.8502  162.8583 F       1  UNL1       -0.1659
     11 F         145.5629  142.0134  164.8293 F       1  UNL1       -0.1659
     12 F         145.1523  140.1141  162.5437 F       1  UNL1       -0.1659
     13 C         140.6443  140.7071  166.7941 C.ar    1  UNL1        0.0792
     14 C         139.8306  140.0543  167.8720 C.ar    1  UNL1        0.0175
     15 C         139.9646  140.5121  169.2941 C.ar    1  UNL1        0.0142
     16 C         140.9124  141.6226  169.6384 C.ar    1  UNL1        0.0768
     17 CL        141.0464  142.0804  171.0606 Cl      1  UNL1       -0.0806
     18 C         141.7261  142.2754  168.5606 C.ar    1  UNL1        0.1098
     19 N         141.5921  141.8176  167.1384 N.ar    1  UNL1       -0.2454
     20 O         139.5372  137.8369  164.0987 O.2     1  UNL1       -0.2750
     21 C         139.8113  138.4351  163.6486 C.2     1  UNL1        0.2259
     22 N         140.3763  139.7916  163.9499 N.am    1  UNL1       -0.2989
     23 H         140.6591  140.3815  163.2142 H       1  UNL1        0.1500
     24 C         139.6773  137.9773  162.2265 C.3     1  UNL1        0.1291
     25 C         140.8233  138.1456  161.2733 C.3     1  UNL1        0.2722
     26 O         141.6554  137.2196  162.1101 O.3     1  UNL1       -0.3725
     27 H         141.1361  136.9174  162.8716 H       1  UNL1        0.2108
     28 C         141.9692  138.3139  160.3201 C.3     1  UNL1        0.4279
     29 F         143.1151  138.4821  159.3670 F       1  UNL1       -0.1672
     30 F         141.5846  137.9307  159.6202 F       1  UNL1       -0.1672
     31 F         142.7662  138.9882  161.3972 F       1  UNL1       -0.1672
     32 C         139.9913  139.0716  160.4365 C.3     1  UNL1        0.4279
     33 F         139.1592  139.9976  159.5996 F       1  UNL1       -0.1672
     34 F         140.4631  139.8060  160.5864 F       1  UNL1       -0.1672
     35 F         139.0839  137.9322  160.0779 F       1  UNL1       -0.1672
     36 C         139.0591  140.6286  165.3867 C.3     1  UNL1        0.0543
     37 C         138.5954  141.8490  164.6480 C.ar    1  UNL1       -0.0199
     38 C         137.9372  141.7094  163.3074 C.ar    1  UNL1       -0.0042
     39 C         137.4735  142.9298  162.5688 C.ar    1  UNL1       -0.0003
     40 C         137.6679  144.2898  163.1709 C.ar    1  UNL1       -0.0000
     41 C         138.3261  144.4295  164.5115 C.ar    1  UNL1       -0.0003
     42 C         138.7898  143.2091  165.2500 C.ar    1  UNL1       -0.0042
@<TRIPOS>BOND
     1    20    21    2
     2    21    24    1
     3    24    25    1
     4    25    26    1
     5    25    28    1
     6    28    29    1
     7    28    30    1
     8    28    31    1
     9    25    32    1
    10    32    33    1
    11    32    34    1
    12    32    35    1
    13    21    22   am
    14    22     1    1
    15     1    36    1
    16    36    37    1
    17    37    38   ar
    18    38    39   ar
    19    39    40   ar
    20    40    41   ar
    21    41    42   ar
    22     1     2    1
    23     2     3   ar
    24     3     4   ar
    25     4     5    1
    26     4     6   ar
    27     6     7   ar
    28     7     9    1
    29     9    10    1
    30     9    11    1
    31     9    12    1
    32     7     8   ar
    33     1    13    1
    34    13    14   ar
    35    14    15   ar
    36    15    16   ar
    37    16    17    1
    38    16    18   ar
    39    18    19   ar
    40    42    37   ar
    41     8     2   ar
    42    19    13   ar
    43    26    27    1
    44    22    23    1
@<TRIPOS>MOLECULE
*****
 42 44 0 0 0
SMALL
GASTEIGER

@<TRIPOS>ATOM
      1 C         140.6572  140.4972  165.6557 C.3     1  UNL1        0.1151
      2 C         142.0765  140.0320  165.5161 C.ar    1  UNL1        0.0015
      3 C         142.5389  138.8056  166.2456 C.ar    1  UNL1        0.0273
      4 C         143.9581  138.3404  166.1060 C.ar    1  UNL1        0.1398
      5 F         144.4205  137.1140  166.8355 F       1  UNL1       -0.2042
      6 C         144.9148  139.1015  165.2368 C.ar    1  UNL1        0.0335
      7 C         144.4523  140.3279  164.5073 C.ar    1  UNL1        0.0734
      8 C         143.0331  140.7931  164.6470 C.ar    1  UNL1        0.0016
      9 C         145.4091  141.0890  163.6382 C.3     1  UNL1        0.4186
     10 F         146.3658  141.8501  162.7691 F       1  UNL1       -0.1659
     11 F         145.1077  140.1641  162.4964 F       1  UNL1       -0.1659
     12 F         145.7105  142.0139  164.7800 F       1  UNL1       -0.1659
     13 C         140.3169  139.8523  164.3450 C.ar    1  UNL1        0.0792
     14 C         139.4875  138.6027  164.3168 C.ar    1  UNL1        0.0175
     15 C         139.1472  137.9578  163.0060 C.ar    1  UNL1        0.0142
     16 C         139.6362  138.5624  161.7233 C.ar    1  UNL1        0.0768
     17 CL        139.2959  137.9175  160.4124 Cl      1  UNL1       -0.0806
     18 C         140.4656  139.8119  161.7514 C.ar    1  UNL1        0.1098
     19 N         140.8059  140.4569  163.0622 N.ar    1  UNL1       -0.2454
     20 O         139.9763  139.9617  168.4193 O.2     1  UNL1       -0.2750
     21 C         140.4497  140.5788  168.2442 C.2     1  UNL1        0.2259
     22 N         140.9976  141.1422  166.9665 N.am    1  UNL1       -0.2989
     23 H         141.5805  141.9352  166.9882 H       1  UNL1        0.1500
     24 C         140.7901  141.2237  169.5550 C.3     1  UNL1        0.1291
     25 C         142.1333  141.8622  169.7504 C.3     1  UNL1        0.2722
     26 O         141.5974  143.1549  169.2100 O.3     1  UNL1       -0.3725
     27 H         140.6630  143.0442  168.9744 H       1  UNL1        0.2108
     28 C         143.4764  142.5008  169.9457 C.3     1  UNL1        0.4279
     29 F         144.8196  143.1393  170.1410 F       1  UNL1       -0.1672
     30 F         143.4288  142.5852  170.8262 F       1  UNL1       -0.1672
     31 F         143.7227  142.4351  168.4675 F       1  UNL1       -0.1672
     32 C         142.6692  140.5697  170.2908 C.3     1  UNL1        0.4279
     33 F         143.2051  139.2770  170.8312 F       1  UNL1       -0.1672
     34 F         143.2366  140.4039  169.6313 F       1  UNL1       -0.1672
     35 F         141.7667  140.6938  171.4825 F       1  UNL1       -0.1672
     36 C         139.2381  140.9624  165.7953 C.3     1  UNL1        0.0543
     37 C         138.7599  142.1546  165.0206 C.ar    1  UNL1       -0.0199
     38 C         137.7890  141.9751  163.8915 C.ar    1  UNL1       -0.0042
     39 C         137.3109  143.1673  163.1168 C.ar    1  UNL1       -0.0003
     40 C         137.8037  144.5389  163.4713 C.ar    1  UNL1       -0.0000
     41 C         138.7746  144.7184  164.6005 C.ar    1  UNL1       -0.0003
     42 C         139.2527  143.5263  165.3751 C.ar    1  UNL1       -0.0042
@<TRIPOS>BOND
     1    20    21    2
     2    21    24    1
     3    24    25    1
     4    25    26    1
     5    25    28    1
     6    28    29    1
     7    28    30    1
     8    28    31    1
     9    25    32    1
    10    32    33    1
    11    32    34    1
    12    32    35    1
    13    21    22   am
    14    22     1    1
    15     1    36    1
    16    36    37    1
    17    37    38   ar
    18    38    39   ar
    19    39    40   ar
    20    40    41   ar
    21    41    42   ar
    22     1     2    1
    23     2     3   ar
    24     3     4   ar
    25     4     5    1
    26     4     6   ar
    27     6     7   ar
    28     7     9    1
    29     9    10    1
    30     9    11    1
    31     9    12    1
    32     7     8   ar
    33     1    13    1
    34    13    14   ar
    35    14    15   ar
    36    15    16   ar
    37    16    17    1
    38    16    18   ar
    39    18    19   ar
    40    42    37   ar
    41     8     2   ar
    42    19    13   ar
    43    26    27    1
    44    22    23    1
@<TRIPOS>MOLECULE
*****
 42 44 0 0 0
SMALL
GASTEIGER

@<TRIPOS>ATOM
      1 C         140.4447  141.6607  165.3462 C.3     1  UNL1        0.1151
      2 C         139.9967  140.2293  165.3236 C.ar    1  UNL1        0.0015
      3 C         140.6246  139.2619  164.3645 C.ar    1  UNL1        0.0273
      4 C         140.1766  137.8306  164.3420 C.ar    1  UNL1        0.1398
      5 F         140.8045  136.8632  163.3828 F       1  UNL1       -0.2042
      6 C         139.1008  137.3666  165.2785 C.ar    1  UNL1        0.0335
      7 C         138.4729  138.3340  166.2376 C.ar    1  UNL1        0.0734
      8 C         138.9208  139.7653  166.2602 C.ar    1  UNL1        0.0016
      9 C         137.3969  137.8700  167.1742 C.3     1  UNL1        0.4186
     10 F         136.3210  137.4060  168.1108 F       1  UNL1       -0.1659
     11 F         137.3562  136.5455  166.4713 F       1  UNL1       -0.1659
     12 F         137.4377  139.1944  167.8771 F       1  UNL1       -0.1659
     13 C         139.8579  141.8658  163.9811 C.ar    1  UNL1        0.0792
     14 C         138.5034  142.4931  163.8334 C.ar    1  UNL1        0.0175
     15 C         137.9166  142.6982  162.4682 C.ar    1  UNL1        0.0142
     16 C         138.6843  142.2760  161.2508 C.ar    1  UNL1        0.0768
     17 CL        138.0975  142.4810  159.8855 Cl      1  UNL1       -0.0806
     18 C         140.0388  141.6486  161.3984 C.ar    1  UNL1        0.1098
     19 N         140.6256  141.4435  162.7635 N.ar    1  UNL1       -0.2454
     20 O         140.0637  142.9141  167.9291 O.2     1  UNL1       -0.2750
     21 C         140.5857  142.3160  167.8563 C.2     1  UNL1        0.2259
     22 N         141.0315  141.4556  166.7113 N.am    1  UNL1       -0.2989
     23 H         141.7092  140.7563  166.8558 H       1  UNL1        0.1500
     24 C         141.1725  142.1110  169.2214 C.3     1  UNL1        0.1291
     25 C         141.7816  140.7893  169.5852 C.3     1  UNL1        0.2722
     26 O         140.4588  140.1182  169.3616 O.3     1  UNL1       -0.3725
     27 H         139.8023  140.7793  169.0916 H       1  UNL1        0.2108
     28 C         142.3906  139.4676  169.9489 C.3     1  UNL1        0.4279
     29 F         142.9996  138.1460  170.3126 F       1  UNL1       -0.1672
     30 F         142.4915  139.6296  170.8139 F       1  UNL1       -0.1672
     31 F         142.2932  139.0288  168.5177 F       1  UNL1       -0.1672
     32 C         143.1043  141.4603  169.8087 C.3     1  UNL1        0.4279
     33 F         144.4272  142.1313  170.0323 F       1  UNL1       -0.1672
     34 F         143.5286  141.0938  169.1231 F       1  UNL1       -0.1672
     35 F         142.5429  142.1681  171.0062 F       1  UNL1       -0.1672
     36 C         140.8927  143.0920  165.3686 C.3     1  UNL1        0.0543
     37 C         142.0717  143.5219  164.5469 C.ar    1  UNL1       -0.0199
     38 C         141.9685  144.7274  163.6603 C.ar    1  UNL1       -0.0042
     39 C         143.1475  145.1572  162.8387 C.ar    1  UNL1       -0.0003
     40 C         144.4297  144.3816  162.9036 C.ar    1  UNL1       -0.0000
     41 C         144.5330  143.1761  163.7902 C.ar    1  UNL1       -0.0003
     42 C         143.3540  142.7462  164.6118 C.ar    1  UNL1       -0.0042
@<TRIPOS>BOND
     1    20    21    2
     2    21    24    1
     3    24    25    1
     4    25    26    1
     5    25    28    1
     6    28    29    1
     7    28    30    1
     8    28    31    1
     9    25    32    1
    10    32    33    1
    11    32    34    1
    12    32    35    1
    13    21    22   am
    14    22     1    1
    15     1    36    1
    16    36    37    1
    17    37    38   ar
    18    38    39   ar
    19    39    40   ar
    20    40    41   ar
    21    41    42   ar
    22     1     2    1
    23     2     3   ar
    24     3     4   ar
    25     4     5    1
    26     4     6   ar
    27     6     7   ar
    28     7     9    1
    29     9    10    1
    30     9    11    1
    31     9    12    1
    32     7     8   ar
    33     1    13    1
    34    13    14   ar
    35    14    15   ar
    36    15    16   ar
    37    16    17    1
    38    16    18   ar
    39    18    19   ar
    40    42    37   ar
    41     8     2   ar
    42    19    13   ar
    43    26    27    1
    44    22    23    1
@<TRIPOS>MOLECULE
*****
 42 44 0 0 0
SMALL
GASTEIGER

@<TRIPOS>ATOM
      1 C         142.0691  141.3438  164.9847 C.3     1  UNL1        0.1151
      2 C         141.9946  142.7391  164.4390 C.ar    1  UNL1        0.0015
      3 C         143.2228  143.5997  164.4103 C.ar    1  UNL1        0.0273
      4 C         143.1484  144.9950  163.8646 C.ar    1  UNL1        0.1398
      5 F         144.3766  145.8556  163.8360 F       1  UNL1       -0.2042
      6 C         141.8457  145.5295  163.3476 C.ar    1  UNL1        0.0335
      7 C         140.6175  144.6689  163.3762 C.ar    1  UNL1        0.0734
      8 C         140.6920  143.2737  163.9219 C.ar    1  UNL1        0.0016
      9 C         139.3149  145.2035  162.8592 C.3     1  UNL1        0.4186
     10 F         138.0123  145.7381  162.3421 F       1  UNL1       -0.1659
     11 F         138.7122  145.0559  164.2248 F       1  UNL1       -0.1659
     12 F         139.9176  145.3511  161.4935 F       1  UNL1       -0.1659
     13 C         142.4694  140.8359  163.6313 C.ar    1  UNL1        0.0792
     14 C         143.8617  140.3265  163.4031 C.ar    1  UNL1        0.0175
     15 C         144.2620  139.8186  162.0496 C.ar    1  UNL1        0.0142
     16 C         143.2701  139.8201  160.9244 C.ar    1  UNL1        0.0768
     17 CL        143.6704  139.3121  159.5710 Cl      1  UNL1       -0.0806
     18 C         141.8778  140.3294  161.1527 C.ar    1  UNL1        0.1098
     19 N         141.4775  140.8373  162.5061 N.ar    1  UNL1       -0.2454
     20 O         143.4994  141.9623  167.4259 O.2     1  UNL1       -0.2750
     21 C         142.7090  142.0623  167.3981 C.2     1  UNL1        0.2259
     22 N         141.6687  141.8517  166.3381 N.am    1  UNL1       -0.2989
     23 H         140.7232  142.0469  166.5307 H       1  UNL1        0.1500
     24 C         142.3087  142.5702  168.7514 C.3     1  UNL1        0.1291
     25 C         141.0191  142.1189  169.3706 C.3     1  UNL1        0.2722
     26 O         141.3523  140.6970  169.0283 O.3     1  UNL1       -0.3725
     27 H         142.2104  140.6656  168.5771 H       1  UNL1        0.2108
     28 C         139.7295  141.6676  169.9897 C.3     1  UNL1        0.4279
     29 F         138.4399  141.2164  170.6088 F       1  UNL1       -0.1672
     30 F         139.3258  141.4308  169.2377 F       1  UNL1       -0.1672
     31 F         140.2599  142.0162  171.3488 F       1  UNL1       -0.1672
     32 C         140.6858  143.5408  169.7128 C.3     1  UNL1        0.4279
     33 F         140.3525  144.9627  170.0552 F       1  UNL1       -0.1672
     34 F         139.8697  143.5463  169.3686 F       1  UNL1       -0.1672
     35 F         142.0373  143.7060  170.3423 F       1  UNL1       -0.1672
     36 C         142.1436  139.9486  165.5303 C.3     1  UNL1        0.0543
     37 C         140.9222  139.0778  165.5322 C.ar    1  UNL1       -0.0199
     38 C         140.9327  137.7696  164.7983 C.ar    1  UNL1       -0.0042
     39 C         139.7113  136.8989  164.8002 C.ar    1  UNL1       -0.0003
     40 C         138.4795  137.3363  165.5359 C.ar    1  UNL1       -0.0000
     41 C         138.4690  138.6444  166.2698 C.ar    1  UNL1       -0.0003
     42 C         139.6904  139.5152  166.2679 C.ar    1  UNL1       -0.0042
@<TRIPOS>BOND
     1    20    21    2
     2    21    24    1
     3    24    25    1
     4    25    26    1
     5    25    28    1
     6    28    29    1
     7    28    30    1
     8    28    31    1
     9    25    32    1
    10    32    33    1
    11    32    34    1
    12    32    35    1
    13    21    22   am
    14    22     1    1
    15     1    36    1
    16    36    37    1
    17    37    38   ar
    18    38    39   ar
    19    39    40   ar
    20    40    41   ar
    21    41    42   ar
    22     1     2    1
    23     2     3   ar
    24     3     4   ar
    25     4     5    1
    26     4     6   ar
    27     6     7   ar
    28     7     9    1
    29     9    10    1
    30     9    11    1
    31     9    12    1
    32     7     8   ar
    33     1    13    1
    34    13    14   ar
    35    14    15   ar
    36    15    16   ar
    37    16    17    1
    38    16    18   ar
    39    18    19   ar
    40    42    37   ar
    41     8     2   ar
    42    19    13   ar
    43    26    27    1
    44    22    23    1
@<TRIPOS>MOLECULE
*****
 42 44 0 0 0
SMALL
GASTEIGER

@<TRIPOS>ATOM
      1 C         141.6165  143.8643  160.6195 C.3     1  UNL1        0.1151
      2 C         142.4281  142.8320  159.8943 C.ar    1  UNL1        0.0015
      3 C         143.3399  143.2442  158.7768 C.ar    1  UNL1        0.0273
      4 C         144.1515  142.2120  158.0516 C.ar    1  UNL1        0.1398
      5 F         145.0633  142.6242  156.9341 F       1  UNL1       -0.2042
      6 C         144.0513  140.7677  158.4439 C.ar    1  UNL1        0.0335
      7 C         143.1394  140.3556  159.5614 C.ar    1  UNL1        0.0734
      8 C         142.3279  141.3877  160.2865 C.ar    1  UNL1        0.0016
      9 C         143.0392  138.9112  159.9536 C.3     1  UNL1        0.4186
     10 F         142.9390  137.4669  160.3458 F       1  UNL1       -0.1659
     11 F         144.4376  138.9609  160.4939 F       1  UNL1       -0.1659
     12 F         141.6408  138.8615  159.4133 F       1  UNL1       -0.1659
     13 C         140.9616  144.2564  159.3283 C.ar    1  UNL1        0.0792
     14 C         140.0352  143.3007  158.6366 C.ar    1  UNL1        0.0175
     15 C         139.3803  143.6929  157.3453 C.ar    1  UNL1        0.0142
     16 C         139.6518  145.0408  156.7458 C.ar    1  UNL1        0.0768
     17 CL        138.9969  145.4330  155.4545 Cl      1  UNL1       -0.0806
     18 C         140.5782  145.9965  157.4374 C.ar    1  UNL1        0.1098
     19 N         141.2331  145.6043  158.7286 N.ar    1  UNL1       -0.2454
     20 O         143.9000  144.8335  162.1142 O.2     1  UNL1       -0.2750
     21 C         143.4776  144.2195  162.3972 C.2     1  UNL1        0.2259
     22 N         142.2714  143.4721  161.9107 N.am    1  UNL1       -0.2989
     23 H         141.9096  142.7242  162.4389 H       1  UNL1        0.1500
     24 C         144.1325  143.8273  163.6884 C.3     1  UNL1        0.1291
     25 C         144.6470  142.4306  163.8746 C.3     1  UNL1        0.2722
     26 O         145.1745  142.4378  162.4703 O.3     1  UNL1       -0.3725
     27 H         144.9745  143.2909  162.0542 H       1  UNL1        0.2108
     28 C         145.1615  141.0340  164.0606 C.3     1  UNL1        0.4279
     29 F         145.6759  139.6374  164.2467 F       1  UNL1       -0.1672
     30 F         145.8423  141.2392  164.5889 F       1  UNL1       -0.1672
     31 F         144.0631  140.5123  163.1823 F       1  UNL1       -0.1672
     32 C         144.1195  142.4234  165.2787 C.3     1  UNL1        0.4279
     33 F         143.5920  142.4162  166.6829 F       1  UNL1       -0.1672
     34 F         143.5590  141.7447  165.1801 F       1  UNL1       -0.1672
     35 F         145.0111  143.5806  165.6195 F       1  UNL1       -0.1672
     36 C         140.8049  144.8965  161.3446 C.3     1  UNL1        0.0543
     37 C         139.8151  144.4740  162.3896 C.ar    1  UNL1       -0.0199
     38 C         138.7433  143.4813  162.0497 C.ar    1  UNL1       -0.0042
     39 C         137.7536  143.0589  163.0947 C.ar    1  UNL1       -0.0003
     40 C         137.8357  143.6293  164.4796 C.ar    1  UNL1       -0.0000
     41 C         138.9075  144.6221  164.8195 C.ar    1  UNL1       -0.0003
     42 C         139.8972  145.0444  163.7745 C.ar    1  UNL1       -0.0042
@<TRIPOS>BOND
     1    20    21    2
     2    21    24    1
     3    24    25    1
     4    25    26    1
     5    25    28    1
     6    28    29    1
     7    28    30    1
     8    28    31    1
     9    25    32    1
    10    32    33    1
    11    32    34    1
    12    32    35    1
    13    21    22   am
    14    22     1    1
    15     1    36    1
    16    36    37    1
    17    37    38   ar
    18    38    39   ar
    19    39    40   ar
    20    40    41   ar
    21    41    42   ar
    22     1     2    1
    23     2     3   ar
    24     3     4   ar
    25     4     5    1
    26     4     6   ar
    27     6     7   ar
    28     7     9    1
    29     9    10    1
    30     9    11    1
    31     9    12    1
    32     7     8   ar
    33     1    13    1
    34    13    14   ar
    35    14    15   ar
    36    15    16   ar
    37    16    17    1
    38    16    18   ar
    39    18    19   ar
    40    42    37   ar
    41     8     2   ar
    42    19    13   ar
    43    26    27    1
    44    22    23    1
@<TRIPOS>MOLECULE
*****
 42 44 0 0 0
SMALL
GASTEIGER

@<TRIPOS>ATOM
      1 C         140.3211  141.7279  165.4050 C.3     1  UNL1        0.1151
      2 C         139.8645  140.3001  165.3500 C.ar    1  UNL1        0.0015
      3 C         140.4253  139.3727  164.3130 C.ar    1  UNL1        0.0273
      4 C         139.9687  137.9449  164.2580 C.ar    1  UNL1        0.1398
      5 F         140.5296  137.0176  163.2210 F       1  UNL1       -0.2042
      6 C         138.9513  137.4446  165.2400 C.ar    1  UNL1        0.0335
      7 C         138.3904  138.3720  166.2770 C.ar    1  UNL1        0.0734
      8 C         138.8470  139.7997  166.3320 C.ar    1  UNL1        0.0016
      9 C         137.3729  137.8716  167.2591 C.3     1  UNL1        0.4186
     10 F         136.3555  137.3712  168.2411 F       1  UNL1       -0.1659
     11 F         137.2875  136.5749  166.5099 F       1  UNL1       -0.1659
     12 F         137.4584  139.1682  168.0083 F       1  UNL1       -0.1659
     13 C         139.8278  141.9395  164.0043 C.ar    1  UNL1        0.0792
     14 C         138.4800  142.5544  163.7688 C.ar    1  UNL1        0.0175
     15 C         137.9867  142.7660  162.3680 C.ar    1  UNL1        0.0142
     16 C         138.8411  142.3628  161.2030 C.ar    1  UNL1        0.0768
     17 CL        138.3477  142.5744  159.8023 Cl      1  UNL1       -0.0806
     18 C         140.1888  141.7478  161.4386 C.ar    1  UNL1        0.1098
     19 N         140.6822  141.5362  162.8392 N.ar    1  UNL1       -0.2454
     20 O         142.6739  140.5006  166.5651 O.2     1  UNL1       -0.2750
     21 C         142.1210  140.8186  167.0432 C.2     1  UNL1        0.2259
     22 N         140.8145  141.5162  166.8056 N.am    1  UNL1       -0.2989
     23 H         140.2808  141.8352  167.5689 H       1  UNL1        0.1500
     24 C         142.6144  140.6070  168.4438 C.3     1  UNL1        0.1291
     25 C         142.8790  141.7865  169.3321 C.3     1  UNL1        0.2722
     26 O         143.4981  142.5171  168.1775 O.3     1  UNL1       -0.3725
     27 H         143.4703  141.9555  167.3871 H       1  UNL1        0.2108
     28 C         143.1436  142.9659  170.2202 C.3     1  UNL1        0.4279
     29 F         143.4082  144.1453  171.1084 F       1  UNL1       -0.1672
     30 F         143.9251  142.6915  170.5341 F       1  UNL1       -0.1672
     31 F         141.8427  143.5790  169.7938 F       1  UNL1       -0.1672
     32 C         142.2599  141.0560  170.4866 C.3     1  UNL1        0.4279
     33 F         141.6407  140.3254  171.6412 F       1  UNL1       -0.1672
     34 F         141.4974  141.5064  170.5030 F       1  UNL1       -0.1672
     35 F         143.4848  140.1977  170.6004 F       1  UNL1       -0.1672
     36 C         140.7777  143.1556  165.4599 C.3     1  UNL1        0.0543
     37 C         141.9132  143.6138  164.5933 C.ar    1  UNL1       -0.0199
     38 C         141.7392  144.8028  163.6957 C.ar    1  UNL1       -0.0042
     39 C         142.8746  145.2609  162.8292 C.ar    1  UNL1       -0.0003
     40 C         144.1841  144.5300  162.8603 C.ar    1  UNL1       -0.0000
     41 C         144.3581  143.3409  163.7580 C.ar    1  UNL1       -0.0003
     42 C         143.2227  142.8828  164.6245 C.ar    1  UNL1       -0.0042
@<TRIPOS>BOND
     1    20    21    2
     2    21    24    1
     3    24    25    1
     4    25    26    1
     5    25    28    1
     6    28    29    1
     7    28    30    1
     8    28    31    1
     9    25    32    1
    10    32    33    1
    11    32    34    1
    12    32    35    1
    13    21    22   am
    14    22     1    1
    15     1    36    1
    16    36    37    1
    17    37    38   ar
    18    38    39   ar
    19    39    40   ar
    20    40    41   ar
    21    41    42   ar
    22     1     2    1
    23     2     3   ar
    24     3     4   ar
    25     4     5    1
    26     4     6   ar
    27     6     7   ar
    28     7     9    1
    29     9    10    1
    30     9    11    1
    31     9    12    1
    32     7     8   ar
    33     1    13    1
    34    13    14   ar
    35    14    15   ar
    36    15    16   ar
    37    16    17    1
    38    16    18   ar
    39    18    19   ar
    40    42    37   ar
    41     8     2   ar
    42    19    13   ar
    43    26    27    1
    44    22    23    1
