@<TRIPOS>MOLECULE
*****
 39 43 0 0 0
SMALL
GASTEIGER

@<TRIPOS>ATOM
      1 C         141.0064  141.0679  163.1666 C.3     1  UNL1        0.0433
      2 C         141.5704  139.9284  163.9626 C.ar    1  UNL1       -0.0208
      3 C         142.6639  140.1782  164.9586 C.ar    1  UNL1       -0.0042
      4 C         143.2279  139.0388  165.7547 C.ar    1  UNL1       -0.0003
      5 C         142.6985  137.6496  165.5546 C.ar    1  UNL1       -0.0000
      6 C         141.6051  137.3998  164.5587 C.ar    1  UNL1       -0.0003
      7 C         141.0410  138.5393  163.7626 C.ar    1  UNL1       -0.0042
      8 C         139.5212  141.2563  163.0754 C.3     1  UNL1        0.0234
      9 C         138.7322  141.6018  164.3035 C.3     1  UNL1        0.0724
     10 C         138.6894  141.4684  164.3744 C.3     1  UNL1        0.0904
     11 C         139.5221  141.9129  165.5401 C.3     1  UNL1        0.0386
     12 C         139.6217  141.0500  166.7630 C.3     1  UNL1        0.0594
     13 C         139.4372  139.9168  167.7283 C.3     1  UNL1        0.0174
     14 C         138.5333  138.9053  167.0882 C.3     1  UNL1        0.0174
     15 C         138.1591  139.4134  165.7273 C.3     1  UNL1        0.0594
     16 C         137.9564  140.1609  164.4315 C.3     1  UNL1        0.0386
     17 N         138.8319  140.7389  165.5264 N.3     1  UNL1       -0.2751
     18 C         137.6119  140.5233  161.4426 C.3     1  UNL1        0.0738
     19 C         138.0944  141.8969  161.8038 C.ar    1  UNL1        0.1433
     20 N         138.1664  143.0772  160.8810 N.ar    1  UNL1       -0.1337
     21 N         138.7062  144.2410  161.6582 N.ar    1  UNL1       -0.1337
     22 C         138.9678  143.7801  163.0614 C.ar    1  UNL1        0.1425
     23 N         138.5897  142.3313  163.1514 N.ar    1  UNL1       -0.3039
     24 C         139.5120  144.6204  164.1784 C.3     1  UNL1        0.0588
     25 C         140.9527  145.0377  164.1698 C.3     1  UNL1        0.0080
     26 C         138.6154  145.0433  165.3043 C.3     1  UNL1        0.0080
     27 C         141.9279  142.0189  162.4619 C.3     1  UNL1        0.0937
     28 N         141.5430  142.5863  161.1278 N.am    1  UNL1       -0.3040
     29 C         142.2028  143.8363  160.6258 C.2     1  UNL1        0.2220
     30 O         143.2476  144.5189  161.4580 O.2     1  UNL1       -0.2751
     31 H         140.8572  142.1383  160.5816 H       1  UNL1        0.1494
     32 C         141.8178  144.4037  159.2917 C.3     1  UNL1        0.0768
     33 C         140.6577  145.3486  159.1851 C.3     1  UNL1        0.0147
     34 C         140.2729  145.9160  157.8509 C.3     1  UNL1        0.0671
     35 C         141.0480  145.5385  156.6235 C.3     1  UNL1        0.2640
     36 F         141.4712  145.4824  155.1856 F       1  UNL1       -0.2043
     37 F         140.0349  146.4640  156.0174 F       1  UNL1       -0.2043
     38 C         142.2080  144.5937  156.7301 C.3     1  UNL1        0.0671
     39 C         142.5930  144.0262  158.0642 C.3     1  UNL1        0.0147
@<TRIPOS>BOND
     1    18    19    1
     2    19    20   ar
     3    20    21   ar
     4    21    22   ar
     5    22    24    1
     6    24    25    1
     7    24    26    1
     8    22    23   ar
     9    10    23    1
    10    10    11    1
    11    12    11    1
    12    12    13    1
    13    13    14    1
    14    15    14    1
    15    15    16    1
    16    15    17    1
    17    17     9    1
    18     9     8    1
    19     8     1    1
    20     1    27    1
    21    27    28    1
    22    28    29   am
    23    29    30    2
    24    29    32    1
    25    32    33    1
    26    33    34    1
    27    34    35    1
    28    35    36    1
    29    35    37    1
    30    35    38    1
    31    38    39    1
    32     1     2    1
    33     2     3   ar
    34     3     4   ar
    35     4     5   ar
    36     5     6   ar
    37     6     7   ar
    38    23    19   ar
    39    16    10    1
    40    39    32    1
    41     7     2   ar
    42    17    12    1
    43    28    31    1
@<TRIPOS>MOLECULE
*****
 39 43 0 0 0
SMALL
GASTEIGER

@<TRIPOS>ATOM
      1 C         141.2658  141.8258  164.9903 C.3     1  UNL1        0.0433
      2 C         140.0049  142.6336  164.9029 C.ar    1  UNL1       -0.0208
      3 C         138.8645  142.1542  164.0546 C.ar    1  UNL1       -0.0042
      4 C         137.6035  142.9619  163.9671 C.ar    1  UNL1       -0.0003
      5 C         137.4831  144.2491  164.7279 C.ar    1  UNL1       -0.0000
      6 C         138.6235  144.7285  165.5762 C.ar    1  UNL1       -0.0003
      7 C         139.8844  143.9207  165.6637 C.ar    1  UNL1       -0.0042
      8 C         141.2192  140.4155  165.4988 C.3     1  UNL1        0.0234
      9 C         141.0285  140.1521  166.9632 C.3     1  UNL1        0.0724
     10 C         141.1344  140.2430  167.0353 C.3     1  UNL1        0.0904
     11 C         139.9844  140.8664  167.7692 C.3     1  UNL1        0.0386
     12 C         140.2348  141.9585  168.7665 C.3     1  UNL1        0.0594
     13 C         140.9278  142.9696  169.6310 C.3     1  UNL1        0.0174
     14 C         142.4003  142.8802  169.3593 C.3     1  UNL1        0.0174
     15 C         142.6173  141.8139  168.3269 C.3     1  UNL1        0.0594
     16 C         142.5348  140.7116  167.2986 C.3     1  UNL1        0.0386
     17 N         141.2789  141.2443  167.9605 N.3     1  UNL1       -0.2751
     18 C         138.2173  139.2928  165.9229 C.3     1  UNL1        0.0738
     19 C         139.5433  138.7141  165.5266 C.ar    1  UNL1        0.1433
     20 N         139.7612  137.5970  164.5495 N.ar    1  UNL1       -0.1337
     21 N         141.2366  137.3434  164.4570 N.ar    1  UNL1       -0.1337
     22 C         141.9307  138.3036  165.3768 C.ar    1  UNL1        0.1425
     23 N         140.8841  139.1508  166.0379 N.ar    1  UNL1       -0.3039
     24 C         143.4113  138.3999  165.5970 C.3     1  UNL1        0.0588
     25 C         144.0356  137.7462  166.7941 C.3     1  UNL1        0.0080
     26 C         144.2677  139.1497  164.6201 C.3     1  UNL1        0.0080
     27 C         142.5733  142.4285  164.5692 C.3     1  UNL1        0.0937
     28 N         143.0205  142.3272  163.1410 N.am    1  UNL1       -0.3040
     29 C         142.5635  143.3446  162.1380 C.2     1  UNL1        0.2220
     30 O         141.6594  144.4634  162.5632 O.2     1  UNL1       -0.2751
     31 H         143.6139  141.5928  162.8619 H       1  UNL1        0.1494
     32 C         143.0107  143.2432  160.7098 C.3     1  UNL1        0.0768
     33 C         142.1771  143.8463  159.6183 C.3     1  UNL1        0.0147
     34 C         142.6243  143.7448  158.1901 C.3     1  UNL1        0.0671
     35 C         143.9051  143.0403  157.8534 C.3     1  UNL1        0.2640
     36 F         145.0323  142.4775  157.0395 F       1  UNL1       -0.2043
     37 F         143.4630  143.4479  156.4792 F       1  UNL1       -0.2043
     38 C         144.7387  142.4373  158.9449 C.3     1  UNL1        0.0671
     39 C         144.2915  142.5387  160.3731 C.3     1  UNL1        0.0147
@<TRIPOS>BOND
     1    18    19    1
     2    19    20   ar
     3    20    21   ar
     4    21    22   ar
     5    22    24    1
     6    24    25    1
     7    24    26    1
     8    22    23   ar
     9    10    23    1
    10    10    11    1
    11    12    11    1
    12    12    13    1
    13    13    14    1
    14    15    14    1
    15    15    16    1
    16    15    17    1
    17    17     9    1
    18     9     8    1
    19     8     1    1
    20     1    27    1
    21    27    28    1
    22    28    29   am
    23    29    30    2
    24    29    32    1
    25    32    33    1
    26    33    34    1
    27    34    35    1
    28    35    36    1
    29    35    37    1
    30    35    38    1
    31    38    39    1
    32     1     2    1
    33     2     3   ar
    34     3     4   ar
    35     4     5   ar
    36     5     6   ar
    37     6     7   ar
    38    23    19   ar
    39    16    10    1
    40    39    32    1
    41     7     2   ar
    42    17    12    1
    43    28    31    1
@<TRIPOS>MOLECULE
*****
 39 43 0 0 0
SMALL
GASTEIGER

@<TRIPOS>ATOM
      1 C         140.4364  141.1285  164.2303 C.3     1  UNL1        0.0433
      2 C         139.7401  139.9303  164.8045 C.ar    1  UNL1       -0.0208
      3 C         138.6047  140.1129  165.7676 C.ar    1  UNL1       -0.0042
      4 C         137.9083  138.9148  166.3419 C.ar    1  UNL1       -0.0003
      5 C         138.3475  137.5342  165.9531 C.ar    1  UNL1       -0.0000
      6 C         139.4829  137.3517  164.9900 C.ar    1  UNL1       -0.0003
      7 C         140.1792  138.5497  164.4157 C.ar    1  UNL1       -0.0042
      8 C         140.4984  142.4065  165.0129 C.3     1  UNL1        0.0234
      9 C         141.4939  142.5576  166.1247 C.3     1  UNL1        0.0724
     10 C         141.4305  142.5126  166.2611 C.3     1  UNL1        0.0904
     11 C         142.4244  141.3892  166.2627 C.3     1  UNL1        0.0386
     12 C         142.4409  140.4040  167.3936 C.3     1  UNL1        0.0594
     13 C         142.1050  139.6921  168.6705 C.3     1  UNL1        0.0174
     14 C         140.9669  140.4205  169.3217 C.3     1  UNL1        0.0174
     15 C         140.5994  141.5826  168.4473 C.3     1  UNL1        0.0594
     16 C         140.4531  142.6509  167.3906 C.3     1  UNL1        0.0386
     17 N         141.5105  141.5724  167.2557 N.3     1  UNL1       -0.2751
     18 C         138.8237  144.1559  165.1868 C.3     1  UNL1        0.0738
     19 C         140.2157  144.2532  164.6363 C.ar    1  UNL1        0.1433
     20 N         140.6539  145.1229  163.4954 N.ar    1  UNL1       -0.1337
     21 N         142.1228  144.9050  163.2841 N.ar    1  UNL1       -0.1337
     22 C         142.5926  143.9008  164.2944 C.ar    1  UNL1        0.1425
     23 N         141.4139  143.4979  165.1301 N.ar    1  UNL1       -0.3039
     24 C         143.9948  143.3891  164.4429 C.3     1  UNL1        0.0588
     25 C         144.5377  142.3932  163.4614 C.3     1  UNL1        0.0080
     26 C         144.8542  143.8733  165.5730 C.3     1  UNL1        0.0080
     27 C         141.0707  141.0483  162.8733 C.3     1  UNL1        0.0937
     28 N         140.8831  142.1659  161.8905 N.am    1  UNL1       -0.3040
     29 C         141.7812  142.2708  160.6937 C.2     1  UNL1        0.2220
     30 O         142.8669  141.2581  160.4796 O.2     1  UNL1       -0.2751
     31 H         140.1706  142.8306  162.0310 H       1  UNL1        0.1494
     32 C         141.5936  143.3884  159.7110 C.3     1  UNL1        0.0768
     33 C         140.3703  144.2535  159.7835 C.3     1  UNL1        0.0147
     34 C         140.1829  145.3711  158.8006 C.3     1  UNL1        0.0671
     35 C         141.2185  145.6235  157.7454 C.3     1  UNL1        0.2640
     36 F         141.9131  146.2523  156.5740 F       1  UNL1       -0.2043
     37 F         140.2365  146.7071  157.4111 F       1  UNL1       -0.2043
     38 C         142.4417  144.7585  157.6728 C.3     1  UNL1        0.0671
     39 C         142.6293  143.6409  158.6556 C.3     1  UNL1        0.0147
@<TRIPOS>BOND
     1    18    19    1
     2    19    20   ar
     3    20    21   ar
     4    21    22   ar
     5    22    24    1
     6    24    25    1
     7    24    26    1
     8    22    23   ar
     9    10    23    1
    10    10    11    1
    11    12    11    1
    12    12    13    1
    13    13    14    1
    14    15    14    1
    15    15    16    1
    16    15    17    1
    17    17     9    1
    18     9     8    1
    19     8     1    1
    20     1    27    1
    21    27    28    1
    22    28    29   am
    23    29    30    2
    24    29    32    1
    25    32    33    1
    26    33    34    1
    27    34    35    1
    28    35    36    1
    29    35    37    1
    30    35    38    1
    31    38    39    1
    32     1     2    1
    33     2     3   ar
    34     3     4   ar
    35     4     5   ar
    36     5     6   ar
    37     6     7   ar
    38    23    19   ar
    39    16    10    1
    40    39    32    1
    41     7     2   ar
    42    17    12    1
    43    28    31    1
@<TRIPOS>MOLECULE
*****
 39 43 0 0 0
SMALL
GASTEIGER

@<TRIPOS>ATOM
      1 C         141.2088  141.3886  163.4479 C.3     1  UNL1        0.0433
      2 C         140.8028  140.0171  163.9000 C.ar    1  UNL1       -0.0208
      3 C         141.8498  139.0106  164.2753 C.ar    1  UNL1       -0.0042
      4 C         141.4439  137.6392  164.7274 C.ar    1  UNL1       -0.0003
      5 C         139.9909  137.2742  164.8041 C.ar    1  UNL1       -0.0000
      6 C         138.9440  138.2807  164.4287 C.ar    1  UNL1       -0.0003
      7 C         139.3499  139.6521  163.9767 C.ar    1  UNL1       -0.0042
      8 C         140.8326  142.5894  164.2642 C.3     1  UNL1        0.0234
      9 C         141.4575  142.8068  165.6104 C.3     1  UNL1        0.0724
     10 C         141.3668  142.7186  165.7035 C.3     1  UNL1        0.0904
     11 C         142.6307  142.0775  166.1950 C.3     1  UNL1        0.0386
     12 C         142.5689  140.9973  167.2339 C.3     1  UNL1        0.0594
     13 C         142.0481  140.0060  168.2319 C.3     1  UNL1        0.0174
     14 C         140.5530  140.1226  168.2642 C.3     1  UNL1        0.0174
     15 C         140.1498  141.1860  167.2861 C.3     1  UNL1        0.0594
     16 C         140.0411  142.2795  166.2509 C.3     1  UNL1        0.0386
     17 N         141.3956  141.7266  166.6493 N.3     1  UNL1       -0.2751
     18 C         144.0482  143.7233  164.1381 C.3     1  UNL1        0.0738
     19 C         142.6611  144.2607  163.9450 C.ar    1  UNL1        0.1433
     20 N         142.2629  145.3541  162.9986 N.ar    1  UNL1       -0.1337
     21 N         140.7844  145.5681  163.1332 N.ar    1  UNL1       -0.1337
     22 C         140.2687  144.6070  164.1628 C.ar    1  UNL1        0.1425
     23 N         141.4286  143.7989  164.6646 N.ar    1  UNL1       -0.3039
     24 C         138.8435  144.4767  164.6118 C.3     1  UNL1        0.0588
     25 C         138.4086  145.0834  165.9129 C.3     1  UNL1        0.0080
     26 C         137.8530  143.7396  163.7598 C.3     1  UNL1        0.0080
     27 C         141.9912  141.5591  162.1794 C.3     1  UNL1        0.0937
     28 N         141.4766  142.4600  161.0962 N.am    1  UNL1       -0.3040
     29 C         142.4328  143.2978  160.3002 C.2     1  UNL1        0.2220
     30 O         143.9037  143.2346  160.5874 O.2     1  UNL1       -0.2751
     31 H         140.5112  142.5015  160.9077 H       1  UNL1        0.1494
     32 C         141.9182  144.1987  159.2169 C.3     1  UNL1        0.0768
     33 C         140.6735  145.0054  159.4406 C.3     1  UNL1        0.0147
     34 C         140.1590  145.9064  158.3573 C.3     1  UNL1        0.0671
     35 C         140.8890  146.0006  157.0503 C.3     1  UNL1        0.2640
     36 F         141.2276  146.4264  155.6525 F       1  UNL1       -0.2043
     37 F         139.7619  146.9552  156.7885 F       1  UNL1       -0.2043
     38 C         142.1336  145.1939  156.8267 C.3     1  UNL1        0.0671
     39 C         142.6483  144.2930  157.9099 C.3     1  UNL1        0.0147
@<TRIPOS>BOND
     1    18    19    1
     2    19    20   ar
     3    20    21   ar
     4    21    22   ar
     5    22    24    1
     6    24    25    1
     7    24    26    1
     8    22    23   ar
     9    10    23    1
    10    10    11    1
    11    12    11    1
    12    12    13    1
    13    13    14    1
    14    15    14    1
    15    15    16    1
    16    15    17    1
    17    17     9    1
    18     9     8    1
    19     8     1    1
    20     1    27    1
    21    27    28    1
    22    28    29   am
    23    29    30    2
    24    29    32    1
    25    32    33    1
    26    33    34    1
    27    34    35    1
    28    35    36    1
    29    35    37    1
    30    35    38    1
    31    38    39    1
    32     1     2    1
    33     2     3   ar
    34     3     4   ar
    35     4     5   ar
    36     5     6   ar
    37     6     7   ar
    38    23    19   ar
    39    16    10    1
    40    39    32    1
    41     7     2   ar
    42    17    12    1
    43    28    31    1
@<TRIPOS>MOLECULE
*****
 39 43 0 0 0
SMALL
GASTEIGER

@<TRIPOS>ATOM
      1 C         140.3809  142.4295  162.4272 C.3     1  UNL1        0.0433
      2 C         140.2290  140.9424  162.3027 C.ar    1  UNL1       -0.0208
      3 C         139.4274  140.3623  161.1753 C.ar    1  UNL1       -0.0042
      4 C         139.2753  138.8752  161.0507 C.ar    1  UNL1       -0.0003
      5 C         139.9249  137.9682  162.0536 C.ar    1  UNL1       -0.0000
      6 C         140.7264  138.5484  163.1809 C.ar    1  UNL1       -0.0003
      7 C         140.8785  140.0354  163.3055 C.ar    1  UNL1       -0.0042
      8 C         141.0827  143.2044  161.3516 C.3     1  UNL1        0.0234
      9 C         142.3041  144.0096  161.6828 C.3     1  UNL1        0.0724
     10 C         142.3905  143.8954  161.7475 C.3     1  UNL1        0.0904
     11 C         142.7074  144.8658  162.8466 C.3     1  UNL1        0.0386
     12 C         143.5952  144.4494  163.9817 C.3     1  UNL1        0.0594
     13 C         144.4848  143.6330  164.8716 C.3     1  UNL1        0.0174
     14 C         144.6314  142.2722  164.2578 C.3     1  UNL1        0.0174
     15 C         143.8324  142.2476  162.9886 C.3     1  UNL1        0.0594
     16 C         142.9613  142.5088  161.7835 C.3     1  UNL1        0.0386
     17 N         143.1919  143.5932  162.8179 N.3     1  UNL1       -0.2751
     18 C         140.0361  146.1513  161.8815 C.3     1  UNL1        0.0738
     19 C         140.4205  145.3487  160.6739 C.ar    1  UNL1        0.1433
     20 N         139.7902  145.4420  159.3159 N.ar    1  UNL1       -0.1337
     21 N         140.4828  144.4629  158.4152 N.ar    1  UNL1       -0.1337
     22 C         141.5411  143.7643  159.2163 C.ar    1  UNL1        0.1425
     23 N         141.5026  144.3118  160.6123 N.ar    1  UNL1       -0.3039
     24 C         142.4742  142.7044  158.7103 C.3     1  UNL1        0.0588
     25 C         143.8948  143.0524  158.3776 C.3     1  UNL1        0.0080
     26 C         141.9867  141.2964  158.5371 C.3     1  UNL1        0.0080
     27 C         139.8311  143.1416  163.6275 C.3     1  UNL1        0.0937
     28 N         140.6516  143.2460  164.8789 N.am    1  UNL1       -0.3040
     29 C         140.3298  142.3807  166.0611 C.2     1  UNL1        0.2220
     30 O         139.1873  141.4111  165.9920 O.2     1  UNL1       -0.2751
     31 H         141.4014  143.8823  164.9242 H       1  UNL1        0.1494
     32 C         141.1503  142.4850  167.3124 C.3     1  UNL1        0.0768
     33 C         140.5321  143.0135  168.5728 C.3     1  UNL1        0.0147
     34 C         141.3528  143.1178  169.8241 C.3     1  UNL1        0.0671
     35 C         142.7916  142.6937  169.8150 C.3     1  UNL1        0.2640
     36 F         144.1835  142.4201  170.3024 F       1  UNL1       -0.2043
     37 F         142.6568  143.1271  171.2447 F       1  UNL1       -0.2043
     38 C         143.4097  142.1653  168.5546 C.3     1  UNL1        0.0671
     39 C         142.5891  142.0609  167.3033 C.3     1  UNL1        0.0147
@<TRIPOS>BOND
     1    18    19    1
     2    19    20   ar
     3    20    21   ar
     4    21    22   ar
     5    22    24    1
     6    24    25    1
     7    24    26    1
     8    22    23   ar
     9    10    23    1
    10    10    11    1
    11    12    11    1
    12    12    13    1
    13    13    14    1
    14    15    14    1
    15    15    16    1
    16    15    17    1
    17    17     9    1
    18     9     8    1
    19     8     1    1
    20     1    27    1
    21    27    28    1
    22    28    29   am
    23    29    30    2
    24    29    32    1
    25    32    33    1
    26    33    34    1
    27    34    35    1
    28    35    36    1
    29    35    37    1
    30    35    38    1
    31    38    39    1
    32     1     2    1
    33     2     3   ar
    34     3     4   ar
    35     4     5   ar
    36     5     6   ar
    37     6     7   ar
    38    23    19   ar
    39    16    10    1
    40    39    32    1
    41     7     2   ar
    42    17    12    1
    43    28    31    1
@<TRIPOS>MOLECULE
*****
 39 43 0 0 0
SMALL
GASTEIGER

@<TRIPOS>ATOM
      1 C         141.1180  140.6017  162.6668 C.3     1  UNL1        0.0433
      2 C         141.6297  140.0616  161.3644 C.ar    1  UNL1       -0.0208
      3 C         141.9438  138.6009  161.2298 C.ar    1  UNL1       -0.0042
      4 C         142.4555  138.0607  159.9274 C.ar    1  UNL1       -0.0003
      5 C         142.6532  138.9811  158.7595 C.ar    1  UNL1       -0.0000
      6 C         142.3391  140.4417  158.8940 C.ar    1  UNL1       -0.0003
      7 C         141.8274  140.9819  160.1965 C.ar    1  UNL1       -0.0042
      8 C         139.8186  141.3496  162.7099 C.3     1  UNL1        0.0234
      9 C         138.5469  140.6253  163.0391 C.3     1  UNL1        0.0724
     10 C         138.5292  140.5949  163.1921 C.3     1  UNL1        0.0904
     11 C         138.7737  139.1542  162.8540 C.3     1  UNL1        0.0386
     12 C         138.7603  138.1168  163.9374 C.3     1  UNL1        0.0594
     13 C         138.6578  137.4592  165.2816 C.3     1  UNL1        0.0174
     14 C         138.3677  138.5240  166.2975 C.3     1  UNL1        0.0174
     15 C         138.2909  139.8397  165.5812 C.3     1  UNL1        0.0594
     16 C         138.2713  140.9984  164.6136 C.3     1  UNL1        0.0386
     17 N         138.5335  139.5880  164.1225 N.3     1  UNL1       -0.2751
     18 C         138.1137  140.0431  160.0027 C.3     1  UNL1        0.0738
     19 C         138.3517  141.3787  160.6427 C.ar    1  UNL1        0.1433
     20 N         138.4404  142.6951  159.9291 N.ar    1  UNL1       -0.1337
     21 N         138.6863  143.7623  160.9541 N.ar    1  UNL1       -0.1337
     22 C         138.7494  143.1056  162.3011 C.ar    1  UNL1        0.1425
     23 N         138.5427  141.6324  162.1087 N.ar    1  UNL1       -0.3039
     24 C         138.9791  143.8000  163.6107 C.3     1  UNL1        0.0588
     25 C         140.3685  144.1912  164.0187 C.3     1  UNL1        0.0080
     26 C         137.8193  144.1032  164.5125 C.3     1  UNL1        0.0080
     27 C         141.9060  140.3938  163.9263 C.3     1  UNL1        0.0937
     28 N         141.5115  141.1090  165.1844 N.am    1  UNL1       -0.3040
     29 C         141.6014  140.4059  166.5064 C.2     1  UNL1        0.2220
     30 O         142.0857  138.9877  166.5702 O.2     1  UNL1       -0.2751
     31 H         141.1937  142.0398  165.1425 H       1  UNL1        0.1494
     32 C         141.2070  141.1211  167.7645 C.3     1  UNL1        0.0768
     33 C         141.3069  140.4217  169.0877 C.3     1  UNL1        0.0147
     34 C         140.9125  141.1370  170.3458 C.3     1  UNL1        0.0671
     35 C         140.4181  142.5517  170.2807 C.3     1  UNL1        0.2640
     36 F         139.8954  143.8841  170.7293 F       1  UNL1       -0.2043
     37 F         140.3365  142.3149  171.7597 F       1  UNL1       -0.2043
     38 C         140.3182  143.2511  168.9576 C.3     1  UNL1        0.0671
     39 C         140.7126  142.5359  167.6995 C.3     1  UNL1        0.0147
@<TRIPOS>BOND
     1    18    19    1
     2    19    20   ar
     3    20    21   ar
     4    21    22   ar
     5    22    24    1
     6    24    25    1
     7    24    26    1
     8    22    23   ar
     9    10    23    1
    10    10    11    1
    11    12    11    1
    12    12    13    1
    13    13    14    1
    14    15    14    1
    15    15    16    1
    16    15    17    1
    17    17     9    1
    18     9     8    1
    19     8     1    1
    20     1    27    1
    21    27    28    1
    22    28    29   am
    23    29    30    2
    24    29    32    1
    25    32    33    1
    26    33    34    1
    27    34    35    1
    28    35    36    1
    29    35    37    1
    30    35    38    1
    31    38    39    1
    32     1     2    1
    33     2     3   ar
    34     3     4   ar
    35     4     5   ar
    36     5     6   ar
    37     6     7   ar
    38    23    19   ar
    39    16    10    1
    40    39    32    1
    41     7     2   ar
    42    17    12    1
    43    28    31    1
@<TRIPOS>MOLECULE
*****
 39 43 0 0 0
SMALL
GASTEIGER

@<TRIPOS>ATOM
      1 C         141.8355  141.1667  164.6262 C.3     1  UNL1        0.0433
      2 C         142.6118  142.4502  164.6311 C.ar    1  UNL1       -0.0208
      3 C         142.1862  143.5874  163.7503 C.ar    1  UNL1       -0.0042
      4 C         142.9624  144.8709  163.7551 C.ar    1  UNL1       -0.0003
      5 C         144.1643  145.0172  164.6407 C.ar    1  UNL1       -0.0000
      6 C         144.5899  143.8800  165.5214 C.ar    1  UNL1       -0.0003
      7 C         143.8136  142.5965  165.5166 C.ar    1  UNL1       -0.0042
      8 C         140.4076  141.1521  165.0854 C.3     1  UNL1        0.0234
      9 C         140.0742  141.4866  166.5091 C.3     1  UNL1        0.0724
     10 C         140.1740  141.3938  166.5871 C.3     1  UNL1        0.0904
     11 C         140.5926  142.6170  167.3477 C.3     1  UNL1        0.0386
     12 C         141.6479  142.5157  168.4089 C.3     1  UNL1        0.0594
     13 C         142.6904  141.9649  169.3361 C.3     1  UNL1        0.0174
     14 C         142.8163  140.4940  169.0704 C.3     1  UNL1        0.0174
     15 C         141.8516  140.1357  167.9791 C.3     1  UNL1        0.0594
     16 C         140.8107  140.0693  166.8877 C.3     1  UNL1        0.0386
     17 N         141.1294  141.3852  167.5702 N.3     1  UNL1       -0.2751
     18 C         139.2548  144.1220  165.0502 C.3     1  UNL1        0.0738
     19 C         138.6962  142.7491  164.8194 C.ar    1  UNL1        0.1433
     20 N         137.6170  142.3891  163.8418 N.ar    1  UNL1       -0.1337
     21 N         137.3726  140.9128  163.9440 N.ar    1  UNL1       -0.1337
     22 C         138.3006  140.3602  164.9848 C.ar    1  UNL1        0.1425
     23 N         139.1187  141.4951  165.5259 N.ar    1  UNL1       -0.3039
     24 C         138.3942  138.9247  165.4099 C.3     1  UNL1        0.0588
     25 C         137.8061  138.4906  166.7197 C.3     1  UNL1        0.0080
     26 C         139.0760  137.9233  164.5253 C.3     1  UNL1        0.0080
     27 C         142.4872  139.8978  164.1621 C.3     1  UNL1        0.0937
     28 N         142.3681  139.4744  162.7281 N.am    1  UNL1       -0.3040
     29 C         143.3993  139.9095  161.7295 C.2     1  UNL1        0.2220
     30 O         144.5497  140.7680  162.1650 O.2     1  UNL1       -0.2751
     31 H         141.6130  138.9110  162.4423 H       1  UNL1        0.1494
     32 C         143.2802  139.4862  160.2954 C.3     1  UNL1        0.0768
     33 C         143.6847  140.4271  159.1995 C.3     1  UNL1        0.0147
     34 C         143.5655  140.0036  157.7655 C.3     1  UNL1        0.0671
     35 C         143.0418  138.6393  157.4273 C.3     1  UNL1        0.2640
     36 F         142.6060  137.4595  156.6100 F       1  UNL1       -0.2043
     37 F         143.2950  139.1705  156.0475 F       1  UNL1       -0.2043
     38 C         142.6372  137.6984  158.5232 C.3     1  UNL1        0.0671
     39 C         142.7564  138.1218  159.9572 C.3     1  UNL1        0.0147
@<TRIPOS>BOND
     1    18    19    1
     2    19    20   ar
     3    20    21   ar
     4    21    22   ar
     5    22    24    1
     6    24    25    1
     7    24    26    1
     8    22    23   ar
     9    10    23    1
    10    10    11    1
    11    12    11    1
    12    12    13    1
    13    13    14    1
    14    15    14    1
    15    15    16    1
    16    15    17    1
    17    17     9    1
    18     9     8    1
    19     8     1    1
    20     1    27    1
    21    27    28    1
    22    28    29   am
    23    29    30    2
    24    29    32    1
    25    32    33    1
    26    33    34    1
    27    34    35    1
    28    35    36    1
    29    35    37    1
    30    35    38    1
    31    38    39    1
    32     1     2    1
    33     2     3   ar
    34     3     4   ar
    35     4     5   ar
    36     5     6   ar
    37     6     7   ar
    38    23    19   ar
    39    16    10    1
    40    39    32    1
    41     7     2   ar
    42    17    12    1
    43    28    31    1
@<TRIPOS>MOLECULE
*****
 39 43 0 0 0
SMALL
GASTEIGER

@<TRIPOS>ATOM
      1 C         139.9668  141.5080  163.3721 C.3     1  UNL1        0.0433
      2 C         139.5500  140.2992  164.1563 C.ar    1  UNL1       -0.0208
      3 C         140.2657  138.9953  163.9612 C.ar    1  UNL1       -0.0042
      4 C         139.8490  137.7864  164.7453 C.ar    1  UNL1       -0.0003
      5 C         138.7167  137.8813  165.7246 C.ar    1  UNL1       -0.0000
      6 C         138.0011  139.1850  165.9197 C.ar    1  UNL1       -0.0003
      7 C         138.4177  140.3940  165.1355 C.ar    1  UNL1       -0.0042
      8 C         139.8451  142.8743  163.9790 C.3     1  UNL1        0.0234
      9 C         140.8868  143.3628  164.9416 C.3     1  UNL1        0.0724
     10 C         140.8526  143.3144  165.0870 C.3     1  UNL1        0.0904
     11 C         142.1027  142.4880  165.0213 C.3     1  UNL1        0.0386
     12 C         142.5015  141.6371  166.1905 C.3     1  UNL1        0.0594
     13 C         142.5059  140.9709  167.5344 C.3     1  UNL1        0.0174
     14 C         141.2927  141.4338  168.2852 C.3     1  UNL1        0.0174
     15 C         140.5385  142.3862  167.4053 C.3     1  UNL1        0.0594
     16 C         140.0013  143.2899  166.3218 C.3     1  UNL1        0.0386
     17 N         141.2856  142.5118  166.1107 N.3     1  UNL1       -0.2751
     18 C         137.8105  144.2074  164.3138 C.3     1  UNL1        0.0738
     19 C         139.0555  144.5759  163.5624 C.ar    1  UNL1        0.1433
     20 N         139.1207  145.4195  162.3238 N.ar    1  UNL1       -0.1337
     21 N         140.5592  145.5304  161.9138 N.ar    1  UNL1       -0.1337
     22 C         141.3831  144.7554  162.8989 C.ar    1  UNL1        0.1425
     23 N         140.4538  144.1654  163.9179 N.ar    1  UNL1       -0.3039
     24 C         142.8746  144.5979  162.8702 C.3     1  UNL1        0.0588
     25 C         143.7292  145.3729  163.8288 C.3     1  UNL1        0.0080
     26 C         143.5115  143.6653  161.8829 C.3     1  UNL1        0.0080
     27 C         140.5052  141.3505  161.9809 C.3     1  UNL1        0.0937
     28 N         140.2048  142.3866  160.9386 N.am    1  UNL1       -0.3040
     29 C         140.9923  142.4167  159.6623 C.2     1  UNL1        0.2220
     30 O         142.0801  141.4107  159.4283 O.2     1  UNL1       -0.2751
     31 H         139.4909  143.0468  161.0922 H       1  UNL1        0.1494
     32 C         140.6920  143.4528  158.6201 C.3     1  UNL1        0.0768
     33 C         139.5805  143.2286  157.6381 C.3     1  UNL1        0.0147
     34 C         139.2802  144.2648  156.5959 C.3     1  UNL1        0.0671
     35 C         140.0914  145.5251  156.5356 C.3     1  UNL1        0.2640
     36 F         140.5749  146.8697  156.0793 F       1  UNL1       -0.2043
     37 F         139.1478  145.7679  155.3951 F       1  UNL1       -0.2043
     38 C         141.2029  145.7493  157.5176 C.3     1  UNL1        0.0671
     39 C         141.5032  144.7132  158.5598 C.3     1  UNL1        0.0147
@<TRIPOS>BOND
     1    18    19    1
     2    19    20   ar
     3    20    21   ar
     4    21    22   ar
     5    22    24    1
     6    24    25    1
     7    24    26    1
     8    22    23   ar
     9    10    23    1
    10    10    11    1
    11    12    11    1
    12    12    13    1
    13    13    14    1
    14    15    14    1
    15    15    16    1
    16    15    17    1
    17    17     9    1
    18     9     8    1
    19     8     1    1
    20     1    27    1
    21    27    28    1
    22    28    29   am
    23    29    30    2
    24    29    32    1
    25    32    33    1
    26    33    34    1
    27    34    35    1
    28    35    36    1
    29    35    37    1
    30    35    38    1
    31    38    39    1
    32     1     2    1
    33     2     3   ar
    34     3     4   ar
    35     4     5   ar
    36     5     6   ar
    37     6     7   ar
    38    23    19   ar
    39    16    10    1
    40    39    32    1
    41     7     2   ar
    42    17    12    1
    43    28    31    1
@<TRIPOS>MOLECULE
*****
 39 43 0 0 0
SMALL
GASTEIGER

@<TRIPOS>ATOM
      1 C         140.7013  140.8967  164.2929 C.3     1  UNL1        0.0433
      2 C         139.8509  139.8379  164.9300 C.ar    1  UNL1       -0.0208
      3 C         139.8253  138.4516  164.3575 C.ar    1  UNL1       -0.0042
      4 C         138.9750  137.3927  164.9944 C.ar    1  UNL1       -0.0003
      5 C         138.1501  137.7202  166.2038 C.ar    1  UNL1       -0.0000
      6 C         138.1757  139.1064  166.7762 C.ar    1  UNL1       -0.0003
      7 C         139.0261  140.1653  166.1393 C.ar    1  UNL1       -0.0042
      8 C         142.1880  140.7160  164.2112 C.3     1  UNL1        0.0234
      9 C         143.0491  141.0395  165.3960 C.3     1  UNL1        0.0724
     10 C         143.0286  140.9321  165.5088 C.3     1  UNL1        0.0904
     11 C         142.4368  142.0320  166.3395 C.3     1  UNL1        0.0386
     12 C         141.9440  141.7422  167.7262 C.3     1  UNL1        0.0594
     13 C         141.5985  141.0226  168.9962 C.3     1  UNL1        0.0174
     14 C         141.9974  139.5853  168.8376 C.3     1  UNL1        0.0174
     15 C         142.5894  139.4167  167.4697 C.3     1  UNL1        0.0594
     16 C         143.1276  139.5425  166.0649 C.3     1  UNL1        0.0386
     17 N         142.5563  140.7498  166.7828 N.3     1  UNL1       -0.2751
     18 C         143.5073  138.7337  163.1450 C.3     1  UNL1        0.0738
     19 C         143.7415  140.2114  163.0354 C.ar    1  UNL1        0.1433
     20 N         144.2368  140.9379  161.8201 N.ar    1  UNL1       -0.1337
     21 N         144.3228  142.3973  162.1556 N.ar    1  UNL1       -0.1337
     22 C         143.8807  142.5729  163.5781 C.ar    1  UNL1        0.1425
     23 N         143.5214  141.2219  164.1219 N.ar    1  UNL1       -0.3039
     24 C         143.8103  143.8714  164.3257 C.3     1  UNL1        0.0588
     25 C         142.7788  144.8953  163.9548 C.3     1  UNL1        0.0080
     26 C         144.7714  144.1460  165.4442 C.3     1  UNL1        0.0080
     27 C         140.0647  142.1364  163.7377 C.3     1  UNL1        0.0937
     28 N         140.4911  142.6636  162.3997 N.am    1  UNL1       -0.3040
     29 C         139.4982  143.3594  161.5166 C.2     1  UNL1        0.2220
     30 O         138.0787  143.5278  161.9715 O.2     1  UNL1       -0.2751
     31 H         141.4228  142.5531  162.1012 H       1  UNL1        0.1494
     32 C         139.9246  143.8866  160.1787 C.3     1  UNL1        0.0768
     33 C         139.3544  143.2960  158.9233 C.3     1  UNL1        0.0147
     34 C         139.7809  143.8233  157.5854 C.3     1  UNL1        0.0671
     35 C         140.7776  144.9413  157.5028 C.3     1  UNL1        0.2640
     36 F         141.6858  145.9793  156.9132 F       1  UNL1       -0.2043
     37 F         140.5228  144.7111  156.0426 F       1  UNL1       -0.2043
     38 C         141.3478  145.5319  158.7581 C.3     1  UNL1        0.0671
     39 C         140.9213  145.0046  160.0961 C.3     1  UNL1        0.0147
@<TRIPOS>BOND
     1    18    19    1
     2    19    20   ar
     3    20    21   ar
     4    21    22   ar
     5    22    24    1
     6    24    25    1
     7    24    26    1
     8    22    23   ar
     9    10    23    1
    10    10    11    1
    11    12    11    1
    12    12    13    1
    13    13    14    1
    14    15    14    1
    15    15    16    1
    16    15    17    1
    17    17     9    1
    18     9     8    1
    19     8     1    1
    20     1    27    1
    21    27    28    1
    22    28    29   am
    23    29    30    2
    24    29    32    1
    25    32    33    1
    26    33    34    1
    27    34    35    1
    28    35    36    1
    29    35    37    1
    30    35    38    1
    31    38    39    1
    32     1     2    1
    33     2     3   ar
    34     3     4   ar
    35     4     5   ar
    36     5     6   ar
    37     6     7   ar
    38    23    19   ar
    39    16    10    1
    40    39    32    1
    41     7     2   ar
    42    17    12    1
    43    28    31    1
