@<TRIPOS>MOLECULE
*****
 37 41 0 0 0
SMALL
GASTEIGER

@<TRIPOS>ATOM
      1 C         140.5739  139.5559  163.3864 C.ar    1  UNL1        0.1318
      2 C         140.5125  140.6658  162.3793 C.ar    1  UNL1        0.0358
      3 C         140.6908  140.3655  160.9206 C.ar    1  UNL1        0.0221
      4 C         140.9305  138.9554  160.4689 C.ar    1  UNL1        0.0861
      5 C         140.9919  137.8455  161.4761 C.ar    1  UNL1        0.1178
      6 N         140.8136  138.1458  162.9348 N.ar    1  UNL1       -0.2276
      7 N         138.7341  139.5059  168.3356 N.3     1  UNL1       -0.3205
      8 C         139.5499  139.8331  167.1201 C.3     1  UNL1        0.0766
      9 C         139.3664  139.2479  165.7513 C.3     1  UNL1        0.1079
     10 N         140.3956  139.8562  164.8453 N.pl3   1  UNL1       -0.2915
     11 C         141.2152  140.8174  165.6542 C.3     1  UNL1        0.0980
     12 C         140.6925  140.8032  167.0601 C.3     1  UNL1        0.0602
     13 H         138.0237  138.8155  168.0924 H       1  UNL1        0.1189
     14 H         138.2814  140.3528  168.6794 H       1  UNL1        0.1189
     15 C         141.2199  141.6162  168.2051 C.ar    1  UNL1        0.0102
     16 C         140.5095  142.8686  168.6255 C.ar    1  UNL1        0.0277
     17 C         141.0369  143.6817  169.7705 C.ar    1  UNL1        0.1400
     18 F         140.3265  144.9341  170.1909 F       1  UNL1       -0.2042
     19 C         142.2746  143.2423  170.4949 C.ar    1  UNL1        0.0319
     20 C         142.9850  141.9898  170.0745 C.ar    1  UNL1        0.0316
     21 C         142.4577  141.1769  168.9296 C.ar    1  UNL1        0.1364
     22 F         143.1681  139.9243  168.5091 F       1  UNL1       -0.2045
     23 N         141.1087  138.6551  159.0101 N.ar    1  UNL1       -0.2714
     24 C         139.9214  138.2919  158.1686 C.ar    1  UNL1        0.0861
     25 C         140.0997  137.9916  156.7097 C.ar    1  UNL1        0.0561
     26 C         141.4653  138.0546  156.0925 C.ar    1  UNL1        0.1453
     27 C         142.6527  138.4179  156.9341 C.ar    1  UNL1        0.0980
     28 C         142.4744  138.7181  158.3929 C.ar    1  UNL1        0.2679
     29 O         143.6618  139.0814  159.2345 O.2     1  UNL1       -0.2665
     30 O         141.6437  137.7544  154.6337 O.3     1  UNL1       -0.4704
     31 C         142.5902  136.6744  154.2006 C.3     1  UNL1        0.2320
     32 C         142.6179  135.3643  154.9306 C.ar    1  UNL1        0.0212
     33 C         141.4808  134.3977  154.7802 C.ar    1  UNL1       -0.0007
     34 C         141.5086  133.0876  155.5101 C.ar    1  UNL1       -0.0002
     35 C         142.6735  132.7441  156.3905 C.ar    1  UNL1       -0.0000
     36 C         143.8106  133.7107  156.5409 C.ar    1  UNL1       -0.0002
     37 C         143.7828  135.0208  155.8109 C.ar    1  UNL1       -0.0007
@<TRIPOS>BOND
     1     8     7    1
     2     8     9    1
     3     9    10    1
     4    10     1    1
     5     1     2   ar
     6     2     3   ar
     7     3     4   ar
     8     4    23    1
     9    23    24   ar
    10    24    25   ar
    11    25    26   ar
    12    26    30    1
    13    30    31    1
    14    31    32    1
    15    32    33   ar
    16    33    34   ar
    17    34    35   ar
    18    35    36   ar
    19    36    37   ar
    20    26    27   ar
    21    27    28   ar
    22    28    29    2
    23     4     5   ar
    24     5     6   ar
    25    10    11    1
    26    11    12    1
    27    12    15    1
    28    15    16   ar
    29    16    17   ar
    30    17    18    1
    31    17    19   ar
    32    19    20   ar
    33    20    21   ar
    34    21    22    1
    35    12     8    1
    36    21    15   ar
    37     6     1   ar
    38    28    23   ar
    39    37    32   ar
    40     7    13    1
    41     7    14    1
@<TRIPOS>MOLECULE
*****
 37 41 0 0 0
SMALL
GASTEIGER

@<TRIPOS>ATOM
      1 C         139.9916  144.7820  158.7152 C.ar    1  UNL1        0.1318
      2 C         140.0966  143.3310  159.0804 C.ar    1  UNL1        0.0358
      3 C         140.2389  142.9279  160.5182 C.ar    1  UNL1        0.0221
      4 C         140.2762  143.9759  161.5907 C.ar    1  UNL1        0.0861
      5 C         140.1711  145.4269  161.2255 C.ar    1  UNL1        0.1178
      6 N         140.0288  145.8300  159.7877 N.ar    1  UNL1       -0.2276
      7 N         138.9016  144.6609  153.5500 N.3     1  UNL1       -0.3205
      8 C         139.3482  145.1294  154.9032 C.3     1  UNL1        0.0766
      9 C         139.3093  144.3284  156.1708 C.3     1  UNL1        0.1079
     10 N         139.8492  145.1851  157.2773 N.pl3   1  UNL1       -0.2915
     11 C         140.2219  146.5157  156.6936 C.3     1  UNL1        0.0980
     12 C         139.9122  146.4813  155.2264 C.3     1  UNL1        0.0602
     13 H         138.5614  143.7017  153.6175 H       1  UNL1        0.1189
     14 H         139.6874  144.6981  152.9009 H       1  UNL1        0.1189
     15 C         140.1286  147.6020  154.2531 C.ar    1  UNL1        0.0102
     16 C         139.4470  148.9213  154.4648 C.ar    1  UNL1        0.0277
     17 C         139.6634  150.0420  153.4915 C.ar    1  UNL1        0.1400
     18 F         138.9818  151.3613  153.7032 F       1  UNL1       -0.2042
     19 C         140.5613  149.8433  152.3066 C.ar    1  UNL1        0.0319
     20 C         141.2430  148.5239  152.0948 C.ar    1  UNL1        0.0316
     21 C         141.0266  147.4034  153.0681 C.ar    1  UNL1        0.1364
     22 F         141.7082  146.0839  152.8564 F       1  UNL1       -0.2045
     23 N         140.4185  143.5728  163.0286 N.ar    1  UNL1       -0.2714
     24 C         141.7647  143.1955  163.5720 C.ar    1  UNL1        0.0861
     25 C         141.9070  142.7923  165.0098 C.ar    1  UNL1        0.0561
     26 C         140.7031  142.7666  165.9042 C.ar    1  UNL1        0.1453
     27 C         139.3568  143.1440  165.3607 C.ar    1  UNL1        0.0980
     28 C         139.2146  143.5471  163.9229 C.ar    1  UNL1        0.2679
     29 O         137.8683  143.9245  163.3795 O.2     1  UNL1       -0.2665
     30 O         140.8453  142.3635  167.3420 O.3     1  UNL1       -0.4704
     31 C         140.9724  140.9138  167.7054 C.3     1  UNL1        0.2320
     32 C         140.2337  139.8749  166.9148 C.ar    1  UNL1        0.0212
     33 C         140.9257  139.1484  165.7997 C.ar    1  UNL1       -0.0007
     34 C         140.1869  138.1096  165.0092 C.ar    1  UNL1       -0.0002
     35 C         138.7562  137.7971  165.3337 C.ar    1  UNL1       -0.0000
     36 C         138.0641  138.5236  166.4488 C.ar    1  UNL1       -0.0002
     37 C         138.8029  139.5624  167.2393 C.ar    1  UNL1       -0.0007
@<TRIPOS>BOND
     1     8     7    1
     2     8     9    1
     3     9    10    1
     4    10     1    1
     5     1     2   ar
     6     2     3   ar
     7     3     4   ar
     8     4    23    1
     9    23    24   ar
    10    24    25   ar
    11    25    26   ar
    12    26    30    1
    13    30    31    1
    14    31    32    1
    15    32    33   ar
    16    33    34   ar
    17    34    35   ar
    18    35    36   ar
    19    36    37   ar
    20    26    27   ar
    21    27    28   ar
    22    28    29    2
    23     4     5   ar
    24     5     6   ar
    25    10    11    1
    26    11    12    1
    27    12    15    1
    28    15    16   ar
    29    16    17   ar
    30    17    18    1
    31    17    19   ar
    32    19    20   ar
    33    20    21   ar
    34    21    22    1
    35    12     8    1
    36    21    15   ar
    37     6     1   ar
    38    28    23   ar
    39    37    32   ar
    40     7    13    1
    41     7    14    1
@<TRIPOS>MOLECULE
*****
 37 41 0 0 0
SMALL
GASTEIGER

@<TRIPOS>ATOM
      1 C         141.9011  142.2378  163.0032 C.ar    1  UNL1        0.1318
      2 C         141.1613  141.5822  161.8750 C.ar    1  UNL1        0.0358
      3 C         141.0385  142.2800  160.5530 C.ar    1  UNL1        0.0221
      4 C         141.6555  143.6335  160.3591 C.ar    1  UNL1        0.0861
      5 C         142.3952  144.2891  161.4873 C.ar    1  UNL1        0.1178
      6 N         142.5180  143.5913  162.8094 N.ar    1  UNL1       -0.2276
      7 N         143.2855  138.7827  166.7485 N.3     1  UNL1       -0.3205
      8 C         142.6603  139.9518  166.0469 C.3     1  UNL1        0.0766
      9 C         142.8198  140.2977  164.5961 C.3     1  UNL1        0.1079
     10 N         142.0239  141.5400  164.3254 N.pl3   1  UNL1       -0.2915
     11 C         141.3725  141.9619  165.6089 C.3     1  UNL1        0.0980
     12 C         141.7657  140.9804  166.6729 C.3     1  UNL1        0.0602
     13 H         143.8448  138.2472  166.0846 H       1  UNL1        0.1189
     14 H         142.5533  138.1867  167.1347 H       1  UNL1        0.1189
     15 C         141.3393  141.0204  168.1105 C.ar    1  UNL1        0.0102
     16 C         139.9721  140.5426  168.5008 C.ar    1  UNL1        0.0277
     17 C         139.5457  140.5826  169.9384 C.ar    1  UNL1        0.1400
     18 F         138.1785  140.1048  170.3288 F       1  UNL1       -0.2042
     19 C         140.4866  141.1005  170.9855 C.ar    1  UNL1        0.0319
     20 C         141.8538  141.5784  170.5952 C.ar    1  UNL1        0.0316
     21 C         142.2801  141.5383  169.1577 C.ar    1  UNL1        0.1364
     22 F         143.6474  142.0162  168.7673 F       1  UNL1       -0.2045
     23 N         141.5326  144.3313  159.0370 N.ar    1  UNL1       -0.2714
     24 C         142.4224  143.9374  157.8955 C.ar    1  UNL1        0.0861
     25 C         142.2996  144.6353  156.5733 C.ar    1  UNL1        0.0561
     26 C         141.2869  145.7270  156.3927 C.ar    1  UNL1        0.1453
     27 C         140.3970  146.1208  157.5343 C.ar    1  UNL1        0.0980
     28 C         140.5199  145.4230  158.8564 C.ar    1  UNL1        0.2679
     29 O         139.6300  145.8169  159.9979 O.2     1  UNL1       -0.2665
     30 O         141.1640  146.4248  155.0707 O.3     1  UNL1       -0.4704
     31 C         139.8305  146.9383  154.6148 C.3     1  UNL1        0.2320
     32 C         139.5184  148.4025  154.7091 C.ar    1  UNL1        0.0212
     33 C         138.6778  148.9190  155.8389 C.ar    1  UNL1       -0.0007
     34 C         138.3658  150.3831  155.9331 C.ar    1  UNL1       -0.0002
     35 C         138.8944  151.3308  154.8975 C.ar    1  UNL1       -0.0000
     36 C         139.7350  150.8143  153.7677 C.ar    1  UNL1       -0.0002
     37 C         140.0470  149.3502  153.6735 C.ar    1  UNL1       -0.0007
@<TRIPOS>BOND
     1     8     7    1
     2     8     9    1
     3     9    10    1
     4    10     1    1
     5     1     2   ar
     6     2     3   ar
     7     3     4   ar
     8     4    23    1
     9    23    24   ar
    10    24    25   ar
    11    25    26   ar
    12    26    30    1
    13    30    31    1
    14    31    32    1
    15    32    33   ar
    16    33    34   ar
    17    34    35   ar
    18    35    36   ar
    19    36    37   ar
    20    26    27   ar
    21    27    28   ar
    22    28    29    2
    23     4     5   ar
    24     5     6   ar
    25    10    11    1
    26    11    12    1
    27    12    15    1
    28    15    16   ar
    29    16    17   ar
    30    17    18    1
    31    17    19   ar
    32    19    20   ar
    33    20    21   ar
    34    21    22    1
    35    12     8    1
    36    21    15   ar
    37     6     1   ar
    38    28    23   ar
    39    37    32   ar
    40     7    13    1
    41     7    14    1
@<TRIPOS>MOLECULE
*****
 37 41 0 0 0
SMALL
GASTEIGER

@<TRIPOS>ATOM
      1 C         140.3945  144.1752  158.8525 C.ar    1  UNL1        0.1318
      2 C         141.6739  143.3935  158.8091 C.ar    1  UNL1        0.0358
      3 C         142.1725  142.7021  160.0433 C.ar    1  UNL1        0.0221
      4 C         141.3916  142.7923  161.3208 C.ar    1  UNL1        0.0861
      5 C         140.1122  143.5740  161.3642 C.ar    1  UNL1        0.1178
      6 N         139.6136  144.2655  160.1300 N.ar    1  UNL1       -0.2276
      7 N         137.9403  145.1304  154.2758 N.3     1  UNL1       -0.3205
      8 C         138.7677  145.3057  155.5145 C.3     1  UNL1        0.0766
      9 C         139.0191  144.2619  156.5620 C.3     1  UNL1        0.1079
     10 N         139.8958  144.8667  157.6182 N.pl3   1  UNL1       -0.2915
     11 C         140.1863  146.2844  157.2236 C.3     1  UNL1        0.0980
     12 C         139.4892  146.5558  155.9234 C.3     1  UNL1        0.0602
     13 H         137.5665  144.1818  154.2480 H       1  UNL1        0.1189
     14 H         138.5216  145.2910  153.4531 H       1  UNL1        0.1189
     15 C         139.5097  147.8499  155.1653 C.ar    1  UNL1        0.0102
     16 C         138.8197  149.0583  155.7252 C.ar    1  UNL1        0.0277
     17 C         138.8403  150.3524  154.9671 C.ar    1  UNL1        0.1400
     18 F         138.1502  151.5608  155.5270 F       1  UNL1       -0.2042
     19 C         139.5509  150.4381  153.6490 C.ar    1  UNL1        0.0319
     20 C         140.2411  149.2297  153.0889 C.ar    1  UNL1        0.0316
     21 C         140.2204  147.9357  153.8471 C.ar    1  UNL1        0.1364
     22 F         140.9106  146.7272  153.2871 F       1  UNL1       -0.2045
     23 N         141.8903  142.1008  162.5551 N.ar    1  UNL1       -0.2714
     24 C         141.3301  140.7650  162.9445 C.ar    1  UNL1        0.0861
     25 C         141.8287  140.0735  164.1787 C.ar    1  UNL1        0.0561
     26 C         142.8876  140.7179  165.0235 C.ar    1  UNL1        0.1453
     27 C         143.4478  142.0538  164.6340 C.ar    1  UNL1        0.0980
     28 C         142.9491  142.7452  163.3998 C.ar    1  UNL1        0.2679
     29 O         143.5094  144.0811  163.0103 O.2     1  UNL1       -0.2665
     30 O         143.3862  140.0265  166.2576 O.3     1  UNL1       -0.4704
     31 C         142.4878  139.8795  167.4497 C.3     1  UNL1        0.2320
     32 C         142.1304  141.0818  168.2724 C.ar    1  UNL1        0.0212
     33 C         143.0717  141.5723  169.3322 C.ar    1  UNL1       -0.0007
     34 C         142.7143  142.7746  170.1547 C.ar    1  UNL1       -0.0002
     35 C         141.4154  143.4864  169.9175 C.ar    1  UNL1       -0.0000
     36 C         140.4740  142.9959  168.8577 C.ar    1  UNL1       -0.0002
     37 C         140.8315  141.7937  168.0351 C.ar    1  UNL1       -0.0007
@<TRIPOS>BOND
     1     8     7    1
     2     8     9    1
     3     9    10    1
     4    10     1    1
     5     1     2   ar
     6     2     3   ar
     7     3     4   ar
     8     4    23    1
     9    23    24   ar
    10    24    25   ar
    11    25    26   ar
    12    26    30    1
    13    30    31    1
    14    31    32    1
    15    32    33   ar
    16    33    34   ar
    17    34    35   ar
    18    35    36   ar
    19    36    37   ar
    20    26    27   ar
    21    27    28   ar
    22    28    29    2
    23     4     5   ar
    24     5     6   ar
    25    10    11    1
    26    11    12    1
    27    12    15    1
    28    15    16   ar
    29    16    17   ar
    30    17    18    1
    31    17    19   ar
    32    19    20   ar
    33    20    21   ar
    34    21    22    1
    35    12     8    1
    36    21    15   ar
    37     6     1   ar
    38    28    23   ar
    39    37    32   ar
    40     7    13    1
    41     7    14    1
@<TRIPOS>MOLECULE
*****
 37 41 0 0 0
SMALL
GASTEIGER

@<TRIPOS>ATOM
      1 C         140.6602  144.0960  158.2879 C.ar    1  UNL1        0.1318
      2 C         142.1558  144.0320  158.3830 C.ar    1  UNL1        0.0358
      3 C         142.8044  143.2166  159.4621 C.ar    1  UNL1        0.0221
      4 C         141.9574  142.4652  160.4460 C.ar    1  UNL1        0.0861
      5 C         140.4618  142.5293  160.3509 C.ar    1  UNL1        0.1178
      6 N         139.8132  143.3447  159.2718 N.ar    1  UNL1       -0.2276
      7 N         137.4677  145.5932  154.3575 N.3     1  UNL1       -0.3205
      8 C         138.5441  145.5996  155.4022 C.3     1  UNL1        0.0766
      9 C         138.8710  144.4740  156.3382 C.3     1  UNL1        0.1079
     10 N         140.0115  144.9114  157.2088 N.pl3   1  UNL1       -0.2915
     11 C         140.3895  146.3074  156.8108 C.3     1  UNL1        0.0980
     12 C         139.4826  146.7327  155.6943 C.3     1  UNL1        0.0602
     13 H         136.9814  144.6968  154.3759 H       1  UNL1        0.1189
     14 H         137.8856  145.7345  153.4379 H       1  UNL1        0.1189
     15 C         139.5094  148.0584  154.9930 C.ar    1  UNL1        0.0102
     16 C         138.7970  149.2365  155.5884 C.ar    1  UNL1        0.0277
     17 C         138.8238  150.5622  154.8871 C.ar    1  UNL1        0.1400
     18 F         138.1114  151.7402  155.4826 F       1  UNL1       -0.2042
     19 C         139.5631  150.7098  153.5904 C.ar    1  UNL1        0.0319
     20 C         140.2756  149.5317  152.9949 C.ar    1  UNL1        0.0316
     21 C         140.2487  148.2061  153.6962 C.ar    1  UNL1        0.1364
     22 F         140.9612  147.0279  153.1007 F       1  UNL1       -0.2045
     23 N         142.6060  141.6498  161.5251 N.ar    1  UNL1       -0.2714
     24 C         142.9653  140.2163  161.2685 C.ar    1  UNL1        0.0861
     25 C         143.6140  139.4009  162.3476 C.ar    1  UNL1        0.0561
     26 C         143.9033  140.0191  163.6833 C.ar    1  UNL1        0.1453
     27 C         143.5440  141.4526  163.9399 C.ar    1  UNL1        0.0980
     28 C         142.8954  142.2680  162.8608 C.ar    1  UNL1        0.2679
     29 O         142.5361  143.7016  163.1174 O.2     1  UNL1       -0.2665
     30 O         144.5520  139.2037  164.7624 O.3     1  UNL1       -0.4704
     31 C         143.7091  138.5455  165.8141 C.3     1  UNL1        0.2320
     32 C         142.2140  138.5581  165.6935 C.ar    1  UNL1        0.0212
     33 C         141.4050  139.5340  166.4954 C.ar    1  UNL1       -0.0007
     34 C         139.9100  139.5465  166.3748 C.ar    1  UNL1       -0.0002
     35 C         139.2238  138.5832  165.4521 C.ar    1  UNL1       -0.0000
     36 C         140.0328  137.6073  164.6502 C.ar    1  UNL1       -0.0002
     37 C         141.5279  137.5947  164.7708 C.ar    1  UNL1       -0.0007
@<TRIPOS>BOND
     1     8     7    1
     2     8     9    1
     3     9    10    1
     4    10     1    1
     5     1     2   ar
     6     2     3   ar
     7     3     4   ar
     8     4    23    1
     9    23    24   ar
    10    24    25   ar
    11    25    26   ar
    12    26    30    1
    13    30    31    1
    14    31    32    1
    15    32    33   ar
    16    33    34   ar
    17    34    35   ar
    18    35    36   ar
    19    36    37   ar
    20    26    27   ar
    21    27    28   ar
    22    28    29    2
    23     4     5   ar
    24     5     6   ar
    25    10    11    1
    26    11    12    1
    27    12    15    1
    28    15    16   ar
    29    16    17   ar
    30    17    18    1
    31    17    19   ar
    32    19    20   ar
    33    20    21   ar
    34    21    22    1
    35    12     8    1
    36    21    15   ar
    37     6     1   ar
    38    28    23   ar
    39    37    32   ar
    40     7    13    1
    41     7    14    1
@<TRIPOS>MOLECULE
*****
 37 41 0 0 0
SMALL
GASTEIGER

@<TRIPOS>ATOM
      1 C         140.3676  144.1505  159.0675 C.ar    1  UNL1        0.1318
      2 C         141.6617  143.3923  159.0832 C.ar    1  UNL1        0.0358
      3 C         142.1174  142.7124  160.3402 C.ar    1  UNL1        0.0221
      4 C         141.2789  142.7908  161.5815 C.ar    1  UNL1        0.0861
      5 C         139.9848  143.5491  161.5658 C.ar    1  UNL1        0.1178
      6 N         139.5292  144.2289  160.3088 N.ar    1  UNL1       -0.2276
      7 N         138.2255  145.0156  154.3194 N.3     1  UNL1       -0.3205
      8 C         138.9273  145.2281  155.6280 C.3     1  UNL1        0.0766
      9 C         139.1856  144.1806  156.6702 C.3     1  UNL1        0.1079
     10 N         139.9119  144.8305  157.8105 N.pl3   1  UNL1       -0.2915
     11 C         140.1025  146.2795  157.4730 C.3     1  UNL1        0.0980
     12 C         139.4940  146.5253  156.1242 C.3     1  UNL1        0.0602
     13 H         137.9443  144.0385  154.2392 H       1  UNL1        0.1189
     14 H         138.8560  145.2520  153.5532 H       1  UNL1        0.1189
     15 C         139.4584  147.8378  155.3989 C.ar    1  UNL1        0.0102
     16 C         140.0970  147.9655  154.0476 C.ar    1  UNL1        0.0277
     17 C         140.0614  149.2780  153.3223 C.ar    1  UNL1        0.1400
     18 F         140.7000  149.4058  151.9711 F       1  UNL1       -0.2042
     19 C         139.3873  150.4627  153.9483 C.ar    1  UNL1        0.0319
     20 C         138.7486  150.3350  155.2996 C.ar    1  UNL1        0.0316
     21 C         138.7843  149.0226  156.0248 C.ar    1  UNL1        0.1364
     22 F         138.1456  148.8948  157.3762 F       1  UNL1       -0.2045
     23 N         141.7346  142.1109  162.8386 N.ar    1  UNL1       -0.2714
     24 C         142.4078  142.9045  163.9188 C.ar    1  UNL1        0.0861
     25 C         142.8635  142.2246  165.1759 C.ar    1  UNL1        0.0561
     26 C         142.6460  140.7510  165.3526 C.ar    1  UNL1        0.1453
     27 C         141.9728  139.9574  164.2723 C.ar    1  UNL1        0.0980
     28 C         141.5172  140.6373  163.0153 C.ar    1  UNL1        0.2679
     29 O         140.8440  139.8436  161.9350 O.2     1  UNL1       -0.2665
     30 O         143.1017  140.0711  166.6096 O.3     1  UNL1       -0.4704
     31 C         142.1003  139.6774  167.6546 C.3     1  UNL1        0.2320
     32 C         141.4575  140.7280  168.5110 C.ar    1  UNL1        0.0212
     33 C         140.0966  140.4900  169.0951 C.ar    1  UNL1       -0.0007
     34 C         139.4539  141.5406  169.9514 C.ar    1  UNL1       -0.0002
     35 C         140.1721  142.8290  170.2236 C.ar    1  UNL1       -0.0000
     36 C         141.5330  143.0669  169.6395 C.ar    1  UNL1       -0.0002
     37 C         142.1757  142.0164  168.7832 C.ar    1  UNL1       -0.0007
@<TRIPOS>BOND
     1     8     7    1
     2     8     9    1
     3     9    10    1
     4    10     1    1
     5     1     2   ar
     6     2     3   ar
     7     3     4   ar
     8     4    23    1
     9    23    24   ar
    10    24    25   ar
    11    25    26   ar
    12    26    30    1
    13    30    31    1
    14    31    32    1
    15    32    33   ar
    16    33    34   ar
    17    34    35   ar
    18    35    36   ar
    19    36    37   ar
    20    26    27   ar
    21    27    28   ar
    22    28    29    2
    23     4     5   ar
    24     5     6   ar
    25    10    11    1
    26    11    12    1
    27    12    15    1
    28    15    16   ar
    29    16    17   ar
    30    17    18    1
    31    17    19   ar
    32    19    20   ar
    33    20    21   ar
    34    21    22    1
    35    12     8    1
    36    21    15   ar
    37     6     1   ar
    38    28    23   ar
    39    37    32   ar
    40     7    13    1
    41     7    14    1
@<TRIPOS>MOLECULE
*****
 37 41 0 0 0
SMALL
GASTEIGER

@<TRIPOS>ATOM
      1 C         141.8830  139.2260  163.1364 C.ar    1  UNL1        0.1318
      2 C         142.3042  137.9355  162.4983 C.ar    1  UNL1        0.0358
      3 C         142.2155  137.7707  161.0101 C.ar    1  UNL1        0.0221
      4 C         141.7056  138.8964  160.1599 C.ar    1  UNL1        0.0861
      5 C         141.2844  140.1869  160.7980 C.ar    1  UNL1        0.1178
      6 N         141.3731  140.3517  162.2862 N.ar    1  UNL1       -0.2276
      7 N         143.3151  138.6071  168.1810 N.3     1  UNL1       -0.3205
      8 C         142.6300  139.1063  166.9434 C.3     1  UNL1        0.0766
      9 C         142.8680  138.6170  165.5456 C.3     1  UNL1        0.1079
     10 N         141.9718  139.3908  164.6247 N.pl3   1  UNL1       -0.2915
     11 C         141.1799  140.3584  165.4534 C.3     1  UNL1        0.0980
     12 C         141.5867  140.1826  166.8864 C.3     1  UNL1        0.0602
     13 H         143.9780  137.8736  167.9302 H       1  UNL1        0.1189
     14 H         142.6201  138.2313  168.8261 H       1  UNL1        0.1189
     15 C         141.0452  140.9486  168.0570 C.ar    1  UNL1        0.0102
     16 C         141.7996  142.1280  168.5952 C.ar    1  UNL1        0.0277
     17 C         141.2582  142.8940  169.7658 C.ar    1  UNL1        0.1400
     18 F         142.0125  144.0734  170.3041 F       1  UNL1       -0.2042
     19 C         139.9624  142.4804  170.3980 C.ar    1  UNL1        0.0319
     20 C         139.2079  141.3009  169.8597 C.ar    1  UNL1        0.0316
     21 C         139.7494  140.5351  168.6892 C.ar    1  UNL1        0.1364
     22 F         138.9950  139.3555  168.1509 F       1  UNL1       -0.2045
     23 N         141.6168  138.7315  158.6716 N.ar    1  UNL1       -0.2714
     24 C         140.3635  138.1901  158.0504 C.ar    1  UNL1        0.0861
     25 C         140.2748  138.0252  156.5620 C.ar    1  UNL1        0.0561
     26 C         141.4395  138.4018  155.6950 C.ar    1  UNL1        0.1453
     27 C         142.6928  138.9433  156.3163 C.ar    1  UNL1        0.0980
     28 C         142.7815  139.1081  157.8045 C.ar    1  UNL1        0.2679
     29 O         144.0349  139.6496  158.4258 O.2     1  UNL1       -0.2665
     30 O         141.3508  138.2370  154.2068 O.3     1  UNL1       -0.4704
     31 C         142.2437  137.2562  153.5063 C.3     1  UNL1        0.2320
     32 C         142.3886  135.8611  154.0383 C.ar    1  UNL1        0.0212
     33 C         143.4251  135.5594  155.0796 C.ar    1  UNL1       -0.0007
     34 C         143.5699  134.1644  155.6115 C.ar    1  UNL1       -0.0002
     35 C         142.6782  133.0711  155.1020 C.ar    1  UNL1       -0.0000
     36 C         141.6417  133.3729  154.0606 C.ar    1  UNL1       -0.0002
     37 C         141.4968  134.7679  153.5288 C.ar    1  UNL1       -0.0007
@<TRIPOS>BOND
     1     8     7    1
     2     8     9    1
     3     9    10    1
     4    10     1    1
     5     1     2   ar
     6     2     3   ar
     7     3     4   ar
     8     4    23    1
     9    23    24   ar
    10    24    25   ar
    11    25    26   ar
    12    26    30    1
    13    30    31    1
    14    31    32    1
    15    32    33   ar
    16    33    34   ar
    17    34    35   ar
    18    35    36   ar
    19    36    37   ar
    20    26    27   ar
    21    27    28   ar
    22    28    29    2
    23     4     5   ar
    24     5     6   ar
    25    10    11    1
    26    11    12    1
    27    12    15    1
    28    15    16   ar
    29    16    17   ar
    30    17    18    1
    31    17    19   ar
    32    19    20   ar
    33    20    21   ar
    34    21    22    1
    35    12     8    1
    36    21    15   ar
    37     6     1   ar
    38    28    23   ar
    39    37    32   ar
    40     7    13    1
    41     7    14    1
@<TRIPOS>MOLECULE
*****
 37 41 0 0 0
SMALL
GASTEIGER

@<TRIPOS>ATOM
      1 C         140.0660  141.7933  162.4479 C.ar    1  UNL1        0.1318
      2 C         141.1298  141.3978  161.4672 C.ar    1  UNL1        0.0358
      3 C         141.2998  142.1706  160.1929 C.ar    1  UNL1        0.0221
      4 C         140.4061  143.3390  159.8995 C.ar    1  UNL1        0.0861
      5 C         139.3424  143.7346  160.8802 C.ar    1  UNL1        0.1178
      6 N         139.1723  142.9617  162.1544 N.ar    1  UNL1       -0.2276
      7 N         138.1269  138.5404  166.1275 N.3     1  UNL1       -0.3205
      8 C         139.0045  139.5252  165.4135 C.3     1  UNL1        0.0766
      9 C         138.7773  140.0712  164.0350 C.3     1  UNL1        0.1079
     10 N         139.8959  141.0204  163.7222 N.pl3   1  UNL1       -0.2915
     11 C         140.8145  141.0610  164.9073 C.3     1  UNL1        0.0980
     12 C         140.2636  140.1369  165.9526 C.3     1  UNL1        0.0602
     13 H         137.3390  138.2911  165.5295 H       1  UNL1        0.1189
     14 H         137.7796  138.9579  166.9909 H       1  UNL1        0.1189
     15 C         140.8660  139.8712  167.3004 C.ar    1  UNL1        0.0102
     16 C         140.0643  140.1227  168.5430 C.ar    1  UNL1        0.0277
     17 C         140.6667  139.8569  169.8908 C.ar    1  UNL1        0.1400
     18 F         139.8651  140.1084  171.1334 F       1  UNL1       -0.2042
     19 C         142.0708  139.3398  169.9959 C.ar    1  UNL1        0.0319
     20 C         142.8725  139.0883  168.7533 C.ar    1  UNL1        0.0316
     21 C         142.2701  139.3540  167.4056 C.ar    1  UNL1        0.1364
     22 F         143.0718  139.1026  166.1629 F       1  UNL1       -0.2045
     23 N         140.5763  144.1119  158.6252 N.ar    1  UNL1       -0.2714
     24 C         141.6648  145.1374  158.5096 C.ar    1  UNL1        0.0861
     25 C         141.8349  145.9103  157.2353 C.ar    1  UNL1        0.0561
     26 C         140.9164  145.6577  156.0766 C.ar    1  UNL1        0.1453
     27 C         139.8278  144.6321  156.1922 C.ar    1  UNL1        0.0980
     28 C         139.6578  143.8593  157.4665 C.ar    1  UNL1        0.2679
     29 O         138.5692  142.8337  157.5821 O.2     1  UNL1       -0.2665
     30 O         141.0865  146.4305  154.8023 O.3     1  UNL1       -0.4704
     31 C         139.9026  147.0947  154.1644 C.3     1  UNL1        0.2320
     32 C         139.4980  148.4753  154.5893 C.ar    1  UNL1        0.0212
     33 C         139.8556  149.6571  153.7376 C.ar    1  UNL1       -0.0007
     34 C         139.4510  151.0376  154.1625 C.ar    1  UNL1       -0.0002
     35 C         138.6888  151.2362  155.4391 C.ar    1  UNL1       -0.0000
     36 C         138.3313  150.0544  156.2908 C.ar    1  UNL1       -0.0002
     37 C         138.7358  148.6740  155.8659 C.ar    1  UNL1       -0.0007
@<TRIPOS>BOND
     1     8     7    1
     2     8     9    1
     3     9    10    1
     4    10     1    1
     5     1     2   ar
     6     2     3   ar
     7     3     4   ar
     8     4    23    1
     9    23    24   ar
    10    24    25   ar
    11    25    26   ar
    12    26    30    1
    13    30    31    1
    14    31    32    1
    15    32    33   ar
    16    33    34   ar
    17    34    35   ar
    18    35    36   ar
    19    36    37   ar
    20    26    27   ar
    21    27    28   ar
    22    28    29    2
    23     4     5   ar
    24     5     6   ar
    25    10    11    1
    26    11    12    1
    27    12    15    1
    28    15    16   ar
    29    16    17   ar
    30    17    18    1
    31    17    19   ar
    32    19    20   ar
    33    20    21   ar
    34    21    22    1
    35    12     8    1
    36    21    15   ar
    37     6     1   ar
    38    28    23   ar
    39    37    32   ar
    40     7    13    1
    41     7    14    1
@<TRIPOS>MOLECULE
*****
 37 41 0 0 0
SMALL
GASTEIGER

@<TRIPOS>ATOM
      1 C         140.0505  143.8650  158.9394 C.ar    1  UNL1        0.1318
      2 C         140.4960  144.6403  160.1437 C.ar    1  UNL1        0.0358
      3 C         140.8463  143.9200  161.4120 C.ar    1  UNL1        0.0221
      4 C         140.7510  142.4244  161.4759 C.ar    1  UNL1        0.0861
      5 C         140.3055  141.6491  160.2716 C.ar    1  UNL1        0.1178
      6 N         139.9552  142.3694  159.0034 N.ar    1  UNL1       -0.2276
      7 N         138.2273  144.9050  154.0943 N.3     1  UNL1       -0.3205
      8 C         138.8622  145.0633  155.4440 C.3     1  UNL1        0.0766
      9 C         139.0105  143.9888  156.4801 C.3     1  UNL1        0.1079
     10 N         139.7003  144.5853  157.6711 N.pl3   1  UNL1       -0.2915
     11 C         139.9783  146.0284  157.3711 C.3     1  UNL1        0.0980
     12 C         139.4604  146.3239  155.9947 C.3     1  UNL1        0.0602
     13 H         137.9051  143.9439  153.9807 H       1  UNL1        0.1189
     14 H         138.9111  145.1223  153.3693 H       1  UNL1        0.1189
     15 C         139.5286  147.6475  155.2923 C.ar    1  UNL1        0.0102
     16 C         138.7847  148.8280  155.8429 C.ar    1  UNL1        0.0277
     17 C         138.8530  150.1516  155.1405 C.ar    1  UNL1        0.1400
     18 F         138.1091  151.3320  155.6910 F       1  UNL1       -0.2042
     19 C         139.6650  150.2947  153.8875 C.ar    1  UNL1        0.0319
     20 C         140.4090  149.1142  153.3369 C.ar    1  UNL1        0.0316
     21 C         140.3407  147.7907  154.0393 C.ar    1  UNL1        0.1364
     22 F         141.0846  146.6101  153.4887 F       1  UNL1       -0.2045
     23 N         141.1012  141.7041  162.7443 N.ar    1  UNL1       -0.2714
     24 C         142.5321  141.3712  163.0470 C.ar    1  UNL1        0.0861
     25 C         142.8823  140.6509  164.3154 C.ar    1  UNL1        0.0561
     26 C         141.8016  140.2636  165.2809 C.ar    1  UNL1        0.1453
     27 C         140.3707  140.5967  164.9780 C.ar    1  UNL1        0.0980
     28 C         140.0205  141.3169  163.7098 C.ar    1  UNL1        0.2679
     29 O         138.5896  141.6499  163.4069 O.2     1  UNL1       -0.2665
     30 O         142.1518  139.5434  166.5492 O.3     1  UNL1       -0.4704
     31 C         142.6380  140.3150  167.7400 C.3     1  UNL1        0.2320
     32 C         141.6609  141.0577  168.6024 C.ar    1  UNL1        0.0212
     33 C         140.5692  140.3127  169.3117 C.ar    1  UNL1       -0.0007
     34 C         139.5921  141.0554  170.1740 C.ar    1  UNL1       -0.0002
     35 C         139.7068  142.5432  170.3270 C.ar    1  UNL1       -0.0000
     36 C         140.7984  143.2882  169.6178 C.ar    1  UNL1       -0.0002
     37 C         141.7755  142.5455  168.7554 C.ar    1  UNL1       -0.0007
@<TRIPOS>BOND
     1     8     7    1
     2     8     9    1
     3     9    10    1
     4    10     1    1
     5     1     2   ar
     6     2     3   ar
     7     3     4   ar
     8     4    23    1
     9    23    24   ar
    10    24    25   ar
    11    25    26   ar
    12    26    30    1
    13    30    31    1
    14    31    32    1
    15    32    33   ar
    16    33    34   ar
    17    34    35   ar
    18    35    36   ar
    19    36    37   ar
    20    26    27   ar
    21    27    28   ar
    22    28    29    2
    23     4     5   ar
    24     5     6   ar
    25    10    11    1
    26    11    12    1
    27    12    15    1
    28    15    16   ar
    29    16    17   ar
    30    17    18    1
    31    17    19   ar
    32    19    20   ar
    33    20    21   ar
    34    21    22    1
    35    12     8    1
    36    21    15   ar
    37     6     1   ar
    38    28    23   ar
    39    37    32   ar
    40     7    13    1
    41     7    14    1
