@<TRIPOS>MOLECULE
*****
 26 28 0 0 0
SMALL
GASTEIGER

@<TRIPOS>ATOM
      1 C         140.8035  144.6323  163.6569 C.3     1  UNL1        0.0716
      2 C         139.5699  144.7956  164.4945 C.3     1  UNL1        0.0199
      3 C         139.3996  143.9845  165.7447 C.3     1  UNL1        0.0060
      4 C         140.4628  143.0102  166.1574 C.3     1  UNL1        0.0224
      5 C         141.6964  142.8470  165.3198 C.3     1  UNL1        0.0060
      6 C         141.8667  143.6580  164.0696 C.3     1  UNL1        0.0199
      7 C         140.2924  142.1991  167.4077 C.ar    1  UNL1       -0.0223
      8 C         140.3877  142.8615  168.7501 C.ar    1  UNL1       -0.0012
      9 C         140.2173  142.0504  170.0004 C.ar    1  UNL1        0.0363
     10 C         139.9515  140.5770  169.9082 C.ar    1  UNL1        0.1337
     11 O         139.7811  139.7659  171.1584 O.3     1  UNL1       -0.5055
     12 C         139.8562  139.9147  168.5657 C.ar    1  UNL1        0.0363
     13 C         140.0266  140.7258  167.3154 C.ar    1  UNL1       -0.0012
     14 H         139.8407  140.1796  171.9970 H       1  UNL1        0.2922
     15 C         140.1596  145.1234  161.1882 C.2     1  UNL1        0.2228
     16 O         139.1749  143.9923  161.2201 O.2     1  UNL1       -0.2751
     17 N         140.9739  145.4434  162.4066 N.am    1  UNL1       -0.3060
     18 H         141.6202  146.1858  162.3857 H       1  UNL1        0.1494
     19 C         140.3300  145.9345  159.9379 C.3     1  UNL1        0.0919
     20 C         140.7680  145.2697  158.6666 C.3     1  UNL1        0.0621
     21 C         140.9825  146.5506  153.5486 C.3     1  UNL1        0.0398
     22 C         140.5758  146.5039  154.9917 C.ar    1  UNL1        0.0278
     23 C         139.4836  147.3127  155.6265 C.ar    1  UNL1        0.1012
     24 N         139.4226  146.9488  157.0804 N.ar    1  UNL1       -0.2415
     25 C         140.4772  145.9151  157.3442 C.ar    1  UNL1        0.0884
     26 S         141.1898  145.6402  156.0533 S.2     1  UNL1       -0.0751
@<TRIPOS>BOND
     1    21    22    1
     2    22    23   ar
     3    23    24   ar
     4    24    25   ar
     5    25    20    1
     6    20    19    1
     7    19    15    1
     8    15    16    2
     9    15    17   am
    10     1    17    1
    11     1     2    1
    12     2     3    1
    13     3     4    1
    14     4     7    1
    15     7     8   ar
    16     8     9   ar
    17     9    10   ar
    18    10    11    1
    19    10    12   ar
    20    12    13   ar
    21     4     5    1
    22     5     6    1
    23    25    26   ar
    24    26    22   ar
    25     6     1    1
    26    13     7   ar
    27    17    18    1
    28    11    14    1
@<TRIPOS>MOLECULE
*****
 26 28 0 0 0
SMALL
GASTEIGER

@<TRIPOS>ATOM
      1 C         139.1807  139.9490  163.6663 C.3     1  UNL1        0.0716
      2 C         140.0992  141.0967  163.9644 C.3     1  UNL1        0.0199
      3 C         140.3781  141.4843  165.3864 C.3     1  UNL1        0.0060
      4 C         139.7383  140.7241  166.5102 C.3     1  UNL1        0.0224
      5 C         138.8198  139.5764  166.2120 C.3     1  UNL1        0.0060
      6 C         138.5409  139.1888  164.7901 C.3     1  UNL1        0.0199
      7 C         140.0172  141.1117  167.9322 C.ar    1  UNL1       -0.0223
      8 C         139.7992  140.1202  169.0364 C.ar    1  UNL1       -0.0012
      9 C         140.0781  140.5078  170.4584 C.ar    1  UNL1        0.0363
     10 C         140.5750  141.8870  170.7762 C.ar    1  UNL1        0.1337
     11 O         140.8538  142.2747  172.1981 O.3     1  UNL1       -0.5055
     12 C         140.7930  142.8786  169.6719 C.ar    1  UNL1        0.0363
     13 C         140.5141  142.4909  168.2499 C.ar    1  UNL1       -0.0012
     14 H         140.7177  141.6553  172.8879 H       1  UNL1        0.2922
     15 C         137.8567  140.2957  161.4579 C.2     1  UNL1        0.2228
     16 O         137.0905  141.4178  162.0935 O.2     1  UNL1       -0.2751
     17 N         138.9018  139.5614  162.2443 N.am    1  UNL1       -0.3060
     18 H         139.4047  138.8249  161.8271 H       1  UNL1        0.1494
     19 C         137.5778  139.9081  160.0359 C.3     1  UNL1        0.0919
     20 C         138.4100  140.4787  158.9260 C.3     1  UNL1        0.0621
     21 C         137.0870  144.0675  155.2858 C.3     1  UNL1        0.0398
     22 C         137.1385  142.8008  156.0877 C.ar    1  UNL1        0.0278
     23 C         136.3129  141.5715  155.8481 C.ar    1  UNL1        0.1012
     24 N         136.6888  140.5520  156.8822 N.ar    1  UNL1       -0.2415
     25 C         137.7466  141.1512  157.7609 C.ar    1  UNL1        0.0884
     26 S         138.0245  142.5411  157.2698 S.2     1  UNL1       -0.0751
@<TRIPOS>BOND
     1    21    22    1
     2    22    23   ar
     3    23    24   ar
     4    24    25   ar
     5    25    20    1
     6    20    19    1
     7    19    15    1
     8    15    16    2
     9    15    17   am
    10     1    17    1
    11     1     2    1
    12     2     3    1
    13     3     4    1
    14     4     7    1
    15     7     8   ar
    16     8     9   ar
    17     9    10   ar
    18    10    11    1
    19    10    12   ar
    20    12    13   ar
    21     4     5    1
    22     5     6    1
    23    25    26   ar
    24    26    22   ar
    25     6     1    1
    26    13     7   ar
    27    17    18    1
    28    11    14    1
@<TRIPOS>MOLECULE
*****
 26 28 0 0 0
SMALL
GASTEIGER

@<TRIPOS>ATOM
      1 C         142.1017  140.2336  167.2275 C.3     1  UNL1        0.0716
      2 C         142.9671  141.3924  166.8297 C.3     1  UNL1        0.0199
      3 C         142.4457  142.4246  165.8744 C.3     1  UNL1        0.0060
      4 C         141.0589  142.2980  165.3169 C.3     1  UNL1        0.0224
      5 C         140.1936  141.1392  165.7146 C.3     1  UNL1        0.0060
      6 C         140.7150  140.1070  166.6699 C.3     1  UNL1        0.0199
      7 C         140.5375  143.3302  164.3615 C.ar    1  UNL1       -0.0223
      8 C         141.4743  144.3336  163.7567 C.ar    1  UNL1       -0.0012
      9 C         140.9529  145.3658  162.8014 C.ar    1  UNL1        0.0363
     10 C         139.4948  145.3947  162.4508 C.ar    1  UNL1        0.1337
     11 O         138.9734  146.4269  161.4955 O.3     1  UNL1       -0.5055
     12 C         138.5580  144.3913  163.0556 C.ar    1  UNL1        0.0363
     13 C         139.0794  143.3591  164.0109 C.ar    1  UNL1       -0.0012
     14 H         139.5585  147.0537  161.1177 H       1  UNL1        0.2922
     15 C         142.2893  139.2935  169.6423 C.2     1  UNL1        0.2228
     16 O         141.4341  140.4180  170.1464 O.2     1  UNL1       -0.2751
     17 N         142.6231  139.2013  168.1828 N.am    1  UNL1       -0.3060
     18 H         143.1844  138.4632  167.8519 H       1  UNL1        0.1494
     19 C         142.8107  138.2612  170.5976 C.3     1  UNL1        0.0919
     20 C         143.8361  137.2665  170.1407 C.3     1  UNL1        0.0621
     21 C         147.1529  135.9450  174.0308 C.3     1  UNL1        0.0398
     22 C         146.1301  135.8582  172.9371 C.ar    1  UNL1        0.0278
     23 C         145.4489  134.6082  172.4641 C.ar    1  UNL1        0.1012
     24 N         144.5067  134.9837  171.3590 N.ar    1  UNL1       -0.2415
     25 C         144.6055  136.4656  171.1490 C.ar    1  UNL1        0.0884
     26 S         145.6088  137.0061  172.1243 S.2     1  UNL1       -0.0751
@<TRIPOS>BOND
     1    21    22    1
     2    22    23   ar
     3    23    24   ar
     4    24    25   ar
     5    25    20    1
     6    20    19    1
     7    19    15    1
     8    15    16    2
     9    15    17   am
    10     1    17    1
    11     1     2    1
    12     2     3    1
    13     3     4    1
    14     4     7    1
    15     7     8   ar
    16     8     9   ar
    17     9    10   ar
    18    10    11    1
    19    10    12   ar
    20    12    13   ar
    21     4     5    1
    22     5     6    1
    23    25    26   ar
    24    26    22   ar
    25     6     1    1
    26    13     7   ar
    27    17    18    1
    28    11    14    1
@<TRIPOS>MOLECULE
*****
 26 28 0 0 0
SMALL
GASTEIGER

@<TRIPOS>ATOM
      1 C         140.8423  144.5629  163.5651 C.3     1  UNL1        0.0716
      2 C         141.8759  143.5571  163.9774 C.3     1  UNL1        0.0199
      3 C         141.6931  142.7685  165.2402 C.3     1  UNL1        0.0060
      4 C         140.4767  142.9857  166.0906 C.3     1  UNL1        0.0224
      5 C         139.4431  143.9915  165.6783 C.3     1  UNL1        0.0060
      6 C         139.6259  144.7801  164.4155 C.3     1  UNL1        0.0199
      7 C         140.2939  142.1971  167.3535 C.ar    1  UNL1       -0.0223
      8 C         139.9207  140.7459  167.2841 C.ar    1  UNL1       -0.0012
      9 C         139.7379  139.9573  168.5469 C.ar    1  UNL1        0.0363
     10 C         139.9284  140.6199  169.8791 C.ar    1  UNL1        0.1337
     11 O         139.7456  139.8313  171.1419 O.3     1  UNL1       -0.5055
     12 C         140.3016  142.0711  169.9485 C.ar    1  UNL1        0.0363
     13 C         140.4844  142.8597  168.6857 C.ar    1  UNL1       -0.0012
     14 H         139.5125  138.9248  171.0986 H       1  UNL1        0.2922
     15 C         140.1684  145.0608  161.1058 C.2     1  UNL1        0.2228
     16 O         139.1288  143.9815  161.1721 O.2     1  UNL1       -0.2751
     17 N         141.0251  145.3515  162.3022 N.am    1  UNL1       -0.3060
     18 H         141.7074  146.0599  162.2586 H       1  UNL1        0.1494
     19 C         140.3511  145.8495  159.8429 C.3     1  UNL1        0.0919
     20 C         141.0063  145.2162  158.6515 C.3     1  UNL1        0.0621
     21 C         144.8087  141.6820  157.6863 C.3     1  UNL1        0.0398
     22 C         143.8802  142.6196  158.3996 C.ar    1  UNL1        0.0278
     23 C         143.8505  142.8766  159.8772 C.ar    1  UNL1        0.1012
     24 N         142.7703  143.8806  160.1513 N.ar    1  UNL1       -0.2415
     25 C         142.1324  144.2441  158.8433 C.ar    1  UNL1        0.0884
     26 S         142.8183  143.4647  157.7607 S.2     1  UNL1       -0.0751
@<TRIPOS>BOND
     1    21    22    1
     2    22    23   ar
     3    23    24   ar
     4    24    25   ar
     5    25    20    1
     6    20    19    1
     7    19    15    1
     8    15    16    2
     9    15    17   am
    10     1    17    1
    11     1     2    1
    12     2     3    1
    13     3     4    1
    14     4     7    1
    15     7     8   ar
    16     8     9   ar
    17     9    10   ar
    18    10    11    1
    19    10    12   ar
    20    12    13   ar
    21     4     5    1
    22     5     6    1
    23    25    26   ar
    24    26    22   ar
    25     6     1    1
    26    13     7   ar
    27    17    18    1
    28    11    14    1
@<TRIPOS>MOLECULE
*****
 26 28 0 0 0
SMALL
GASTEIGER

@<TRIPOS>ATOM
      1 C         141.9081  138.1754  164.0958 C.3     1  UNL1        0.0716
      2 C         140.5182  138.5650  164.5036 C.3     1  UNL1        0.0199
      3 C         140.2829  139.2244  165.8302 C.3     1  UNL1        0.0060
      4 C         141.4375  139.4942  166.7489 C.3     1  UNL1        0.0224
      5 C         142.8274  139.1046  166.3412 C.3     1  UNL1        0.0060
      6 C         143.0627  138.4452  165.0146 C.3     1  UNL1        0.0199
      7 C         141.2022  140.1536  168.0756 C.ar    1  UNL1       -0.0223
      8 C         139.8025  140.3480  168.5787 C.ar    1  UNL1       -0.0012
      9 C         139.5671  141.0074  169.9053 C.ar    1  UNL1        0.0363
     10 C         140.7315  141.4725  170.7287 C.ar    1  UNL1        0.1337
     11 O         140.4962  142.1319  172.0552 O.3     1  UNL1       -0.5055
     12 C         142.1312  141.2781  170.2255 C.ar    1  UNL1        0.0363
     13 C         142.3665  140.6187  168.8990 C.ar    1  UNL1       -0.0012
     14 H         139.6218  142.2533  172.3696 H       1  UNL1        0.2922
     15 C         142.7150  138.3063  161.6297 C.2     1  UNL1        0.2228
     16 O         143.0512  139.7562  161.8167 O.2     1  UNL1       -0.2751
     17 N         142.1435  137.5159  162.7692 N.am    1  UNL1       -0.3060
     18 H         141.9229  136.5644  162.6465 H       1  UNL1        0.1494
     19 C         142.9504  137.6469  160.3031 C.3     1  UNL1        0.0919
     20 C         142.3344  138.2195  159.0611 C.3     1  UNL1        0.0621
     21 C         143.1522  135.2900  154.7449 C.3     1  UNL1        0.0398
     22 C         143.1861  136.4226  155.7278 C.ar    1  UNL1        0.0278
     23 C         143.8985  137.7296  155.5427 C.ar    1  UNL1        0.1012
     24 N         143.6662  138.5618  156.7689 N.ar    1  UNL1       -0.2415
     25 C         142.8102  137.7692  157.7117 C.ar    1  UNL1        0.0884
     26 S         142.5135  136.4471  157.0683 S.2     1  UNL1       -0.0751
@<TRIPOS>BOND
     1    21    22    1
     2    22    23   ar
     3    23    24   ar
     4    24    25   ar
     5    25    20    1
     6    20    19    1
     7    19    15    1
     8    15    16    2
     9    15    17   am
    10     1    17    1
    11     1     2    1
    12     2     3    1
    13     3     4    1
    14     4     7    1
    15     7     8   ar
    16     8     9   ar
    17     9    10   ar
    18    10    11    1
    19    10    12   ar
    20    12    13   ar
    21     4     5    1
    22     5     6    1
    23    25    26   ar
    24    26    22   ar
    25     6     1    1
    26    13     7   ar
    27    17    18    1
    28    11    14    1
@<TRIPOS>MOLECULE
*****
 26 28 0 0 0
SMALL
GASTEIGER

@<TRIPOS>ATOM
      1 C         138.2183  140.5814  164.1581 C.3     1  UNL1        0.0716
      2 C         138.0766  139.4093  165.0833 C.3     1  UNL1        0.0199
      3 C         138.7670  139.4173  166.4149 C.3     1  UNL1        0.0060
      4 C         139.5990  140.5973  166.8213 C.3     1  UNL1        0.0224
      5 C         139.7406  141.7694  165.8961 C.3     1  UNL1        0.0060
      6 C         139.0503  141.7614  164.5645 C.3     1  UNL1        0.0199
      7 C         140.2894  140.6053  168.1531 C.ar    1  UNL1       -0.0223
      8 C         141.7632  140.8723  168.2322 C.ar    1  UNL1       -0.0012
      9 C         142.4536  140.8802  169.5639 C.ar    1  UNL1        0.0363
     10 C         141.6700  140.6211  170.8164 C.ar    1  UNL1        0.1337
     11 O         142.3603  140.6290  172.1481 O.3     1  UNL1       -0.5055
     12 C         140.1960  140.3541  170.7373 C.ar    1  UNL1        0.0363
     13 C         139.5058  140.3461  169.4056 C.ar    1  UNL1       -0.0012
     14 H         143.2810  140.7959  172.1976 H       1  UNL1        0.2922
     15 C         138.1119  139.7972  161.6834 C.2     1  UNL1        0.2228
     16 O         139.3862  139.0288  161.8721 O.2     1  UNL1       -0.2751
     17 N         137.5279  140.5734  162.8263 N.am    1  UNL1       -0.3060
     18 H         136.6915  141.0777  162.7025 H       1  UNL1        0.1494
     19 C         137.4215  139.7892  160.3517 C.3     1  UNL1        0.0919
     20 C         137.9339  140.6511  159.2361 C.3     1  UNL1        0.0621
     21 C         141.9049  144.1263  159.0489 C.3     1  UNL1        0.0398
     22 C         140.6449  143.4203  159.4539 C.ar    1  UNL1        0.0278
     23 C         139.7203  143.8321  160.5610 C.ar    1  UNL1        0.1012
     24 N         138.5923  142.8449  160.6142 N.ar    1  UNL1       -0.2415
     25 C         138.8196  141.8229  159.5399 C.ar    1  UNL1        0.0884
     26 S         140.0882  142.1786  158.8229 S.2     1  UNL1       -0.0751
@<TRIPOS>BOND
     1    21    22    1
     2    22    23   ar
     3    23    24   ar
     4    24    25   ar
     5    25    20    1
     6    20    19    1
     7    19    15    1
     8    15    16    2
     9    15    17   am
    10     1    17    1
    11     1     2    1
    12     2     3    1
    13     3     4    1
    14     4     7    1
    15     7     8   ar
    16     8     9   ar
    17     9    10   ar
    18    10    11    1
    19    10    12   ar
    20    12    13   ar
    21     4     5    1
    22     5     6    1
    23    25    26   ar
    24    26    22   ar
    25     6     1    1
    26    13     7   ar
    27    17    18    1
    28    11    14    1
@<TRIPOS>MOLECULE
*****
 26 28 0 0 0
SMALL
GASTEIGER

@<TRIPOS>ATOM
      1 C         139.4732  140.2221  163.2128 C.3     1  UNL1        0.0716
      2 C         138.4913  139.6886  164.2133 C.3     1  UNL1        0.0199
      3 C         138.6534  140.0117  165.6690 C.3     1  UNL1        0.0060
      4 C         139.7975  140.8683  166.1243 C.3     1  UNL1        0.0224
      5 C         140.7795  141.4018  165.1237 C.3     1  UNL1        0.0060
      6 C         140.6173  141.0787  163.6680 C.3     1  UNL1        0.0199
      7 C         139.9597  141.1914  167.5801 C.ar    1  UNL1       -0.0223
      8 C         140.5511  142.5059  167.9953 C.ar    1  UNL1       -0.0012
      9 C         140.7132  142.8290  169.4511 C.ar    1  UNL1        0.0363
     10 C         140.2839  141.8376  170.4917 C.ar    1  UNL1        0.1337
     11 O         140.4460  142.1606  171.9475 O.3     1  UNL1       -0.5055
     12 C         139.6925  140.5231  170.0765 C.ar    1  UNL1        0.0363
     13 C         139.5304  140.2000  168.6207 C.ar    1  UNL1       -0.0012
     14 H         140.8155  142.9817  172.2068 H       1  UNL1        0.2922
     15 C         139.7759  138.5753  161.2262 C.2     1  UNL1        0.2228
     16 O         140.4029  137.5746  162.1512 O.2     1  UNL1       -0.2751
     17 N         139.3111  139.8990  161.7569 N.am    1  UNL1       -0.3060
     18 H         138.8996  140.5557  161.1498 H       1  UNL1        0.1494
     19 C         139.6138  138.2522  159.7703 C.3     1  UNL1        0.0919
     20 C         140.5680  138.8242  158.7643 C.3     1  UNL1        0.0621
     21 C         144.0038  136.2322  155.7054 C.3     1  UNL1        0.0398
     22 C         142.7239  136.7546  156.2877 C.ar    1  UNL1        0.0278
     23 C         141.3402  136.4345  155.8049 C.ar    1  UNL1        0.1012
     24 N         140.3642  137.1708  156.6739 N.ar    1  UNL1       -0.2415
     25 C         141.1447  137.9460  157.6938 C.ar    1  UNL1        0.0884
     26 S         142.6030  137.6887  157.4551 S.2     1  UNL1       -0.0751
@<TRIPOS>BOND
     1    21    22    1
     2    22    23   ar
     3    23    24   ar
     4    24    25   ar
     5    25    20    1
     6    20    19    1
     7    19    15    1
     8    15    16    2
     9    15    17   am
    10     1    17    1
    11     1     2    1
    12     2     3    1
    13     3     4    1
    14     4     7    1
    15     7     8   ar
    16     8     9   ar
    17     9    10   ar
    18    10    11    1
    19    10    12   ar
    20    12    13   ar
    21     4     5    1
    22     5     6    1
    23    25    26   ar
    24    26    22   ar
    25     6     1    1
    26    13     7   ar
    27    17    18    1
    28    11    14    1
@<TRIPOS>MOLECULE
*****
 26 28 0 0 0
SMALL
GASTEIGER

@<TRIPOS>ATOM
      1 C         139.9825  141.6334  163.2323 C.3     1  UNL1        0.0716
      2 C         140.1139  142.9684  163.9034 C.3     1  UNL1        0.0199
      3 C         140.1789  143.0524  165.3996 C.3     1  UNL1        0.0060
      4 C         140.1124  141.8015  166.2247 C.3     1  UNL1        0.0224
      5 C         139.9810  140.4665  165.5535 C.3     1  UNL1        0.0060
      6 C         139.9161  140.3824  164.0573 C.3     1  UNL1        0.0199
      7 C         140.1774  141.8856  167.7210 C.ar    1  UNL1       -0.0223
      8 C         139.9744  140.6528  168.5510 C.ar    1  UNL1       -0.0012
      9 C         140.0393  140.7369  170.0472 C.ar    1  UNL1        0.0363
     10 C         140.3073  142.0539  170.7134 C.ar    1  UNL1        0.1337
     11 O         140.3722  142.1380  172.2096 O.3     1  UNL1       -0.5055
     12 C         140.5103  143.2867  169.8834 C.ar    1  UNL1        0.0363
     13 C         140.4453  143.2026  168.3872 C.ar    1  UNL1       -0.0012
     14 H         140.2454  141.3679  172.7281 H       1  UNL1        0.2922
     15 C         138.6008  141.3235  161.0540 C.2     1  UNL1        0.2228
     16 O         137.3490  141.1818  161.8681 O.2     1  UNL1       -0.2751
     17 N         139.9176  141.5493  161.7360 N.am    1  UNL1       -0.3060
     18 H         140.7392  141.6423  161.2016 H       1  UNL1        0.1494
     19 C         138.5359  141.2394  159.5577 C.3     1  UNL1        0.0919
     20 C         138.3545  142.4861  158.7436 C.3     1  UNL1        0.0621
     21 C         142.2056  145.8770  157.4982 C.3     1  UNL1        0.0398
     22 C         141.1351  145.1500  158.2568 C.ar    1  UNL1        0.0278
     23 C         140.7046  145.4344  159.6654 C.ar    1  UNL1        0.1012
     24 N         139.6106  144.4711  160.0191 N.ar    1  UNL1       -0.2415
     25 C         139.3649  143.5914  158.8293 C.ar    1  UNL1        0.0884
     26 S         140.3071  144.0109  157.7401 S.2     1  UNL1       -0.0751
@<TRIPOS>BOND
     1    21    22    1
     2    22    23   ar
     3    23    24   ar
     4    24    25   ar
     5    25    20    1
     6    20    19    1
     7    19    15    1
     8    15    16    2
     9    15    17   am
    10     1    17    1
    11     1     2    1
    12     2     3    1
    13     3     4    1
    14     4     7    1
    15     7     8   ar
    16     8     9   ar
    17     9    10   ar
    18    10    11    1
    19    10    12   ar
    20    12    13   ar
    21     4     5    1
    22     5     6    1
    23    25    26   ar
    24    26    22   ar
    25     6     1    1
    26    13     7   ar
    27    17    18    1
    28    11    14    1
@<TRIPOS>MOLECULE
*****
 26 28 0 0 0
SMALL
GASTEIGER

@<TRIPOS>ATOM
      1 C         139.1487  139.3318  163.8816 C.3     1  UNL1        0.0716
      2 C         140.4397  140.0695  164.0794 C.3     1  UNL1        0.0199
      3 C         140.9555  140.3203  165.4653 C.3     1  UNL1        0.0060
      4 C         140.1803  139.8332  166.6536 C.3     1  UNL1        0.0224
      5 C         138.8894  139.0955  166.4559 C.3     1  UNL1        0.0060
      6 C         138.3736  138.8448  165.0699 C.3     1  UNL1        0.0199
      7 C         140.6962  140.0840  168.0397 C.ar    1  UNL1       -0.0223
      8 C         139.7498  140.4906  169.1300 C.ar    1  UNL1       -0.0012
      9 C         140.2657  140.7413  170.5161 C.ar    1  UNL1        0.0363
     10 C         141.7280  140.5855  170.8117 C.ar    1  UNL1        0.1337
     11 O         142.2438  140.8362  172.1977 O.3     1  UNL1       -0.5055
     12 C         142.6744  140.1789  169.7212 C.ar    1  UNL1        0.0363
     13 C         142.1585  139.9282  168.3353 C.ar    1  UNL1       -0.0012
     14 H         141.6527  141.0902  172.8788 H       1  UNL1        0.2922
     15 C         137.7790  140.1098  161.8155 C.2     1  UNL1        0.2228
     16 O         137.4410  141.3895  162.5215 O.2     1  UNL1       -0.2751
     17 N         138.6329  139.0810  162.4956 N.am    1  UNL1       -0.3060
     18 H         138.8547  138.2412  162.0322 H       1  UNL1        0.1494
     19 C         137.2632  139.8591  160.4295 C.3     1  UNL1        0.0919
     20 C         138.0881  140.2515  159.2398 C.3     1  UNL1        0.0621
     21 C         141.6906  137.3650  156.6765 C.3     1  UNL1        0.0398
     22 C         140.9985  138.1694  157.7367 C.ar    1  UNL1        0.0278
     23 C         141.5478  138.4981  159.0933 C.ar    1  UNL1        0.1012
     24 N         140.5244  139.3181  159.8215 N.ar    1  UNL1       -0.2415
     25 C         139.3426  139.4962  158.9149 C.ar    1  UNL1        0.0884
     26 S         139.6356  138.7862  157.6265 S.2     1  UNL1       -0.0751
@<TRIPOS>BOND
     1    21    22    1
     2    22    23   ar
     3    23    24   ar
     4    24    25   ar
     5    25    20    1
     6    20    19    1
     7    19    15    1
     8    15    16    2
     9    15    17   am
    10     1    17    1
    11     1     2    1
    12     2     3    1
    13     3     4    1
    14     4     7    1
    15     7     8   ar
    16     8     9   ar
    17     9    10   ar
    18    10    11    1
    19    10    12   ar
    20    12    13   ar
    21     4     5    1
    22     5     6    1
    23    25    26   ar
    24    26    22   ar
    25     6     1    1
    26    13     7   ar
    27    17    18    1
    28    11    14    1
