@<TRIPOS>MOLECULE
*****
 37 41 0 0 0
SMALL
GASTEIGER

@<TRIPOS>ATOM
      1 O         142.0069  142.5140  166.5580 O.3     1  UNL1       -0.4535
      2 C         140.7177  144.0014  162.5114 C.ar    1  UNL1        0.0536
      3 C         139.8772  144.2909  163.7196 C.ar    1  UNL1        0.0076
      4 C         140.3069  143.7951  165.0684 C.ar    1  UNL1        0.0376
      5 C         141.5772  143.0098  165.2092 C.ar    1  UNL1        0.1453
      6 C         142.4177  142.7203  164.0009 C.ar    1  UNL1        0.0376
      7 C         141.9879  143.2162  162.6520 C.ar    1  UNL1        0.0076
      8 O         139.2952  145.6166  161.0562 O.2     1  UNL1       -0.2701
      9 C         140.2879  144.4972  161.1625 C.2     1  UNL1        0.2458
     10 N         140.8509  143.8736  159.9199 N.am    1  UNL1       -0.3008
     11 H         141.5025  143.1388  159.9897 H       1  UNL1        0.1497
     12 C         140.4211  144.3694  158.5709 C.3     1  UNL1        0.0955
     13 C         140.9316  145.6829  158.0571 C.3     1  UNL1        0.0232
     14 C         140.5018  146.1786  156.7082 C.3     1  UNL1        0.0271
     15 C         139.5616  145.3608  155.8732 C.3     1  UNL1        0.1509
     16 S         139.0512  144.0472  156.3870 S.O2    1  UNL1       -0.0084
     17 O         138.3012  142.7493  156.4387 O.2     1  UNL1       -0.1729
     18 O         138.3610  144.0922  155.0560 O.2     1  UNL1       -0.1729
     19 C         139.4810  143.5515  157.7360 C.3     1  UNL1        0.1702
     20 C         141.0205  141.8234  167.4525 C.ar    1  UNL1        0.1453
     21 C         140.7295  142.3762  168.8162 C.ar    1  UNL1        0.0381
     22 C         139.7431  141.6857  169.7107 C.ar    1  UNL1        0.0114
     23 C         139.0477  140.4421  169.2414 C.ar    1  UNL1        0.0419
     24 C         139.3386  139.8893  167.8778 C.ar    1  UNL1        0.0114
     25 C         140.3251  140.5799  166.9833 C.ar    1  UNL1        0.0381
     26 C         138.0613  139.7516  170.1360 C.1     1  UNL1       -0.0621
     27 C         137.0748  139.0612  171.0304 C.1     1  UNL1       -0.0597
     28 C         135.4999  137.6503  172.7609 C.3     1  UNL1        0.1561
     29 O         135.4725  139.7612  171.8437 O.3     1  UNL1       -0.3739
     30 C         136.3840  136.6359  172.5908 C.3     1  UNL1        0.1120
     31 N         136.8929  135.9926  172.5193 N.3     1  UNL1       -0.2699
     32 C         135.7120  135.8139  173.4268 C.3     1  UNL1        0.0723
     33 C         134.7342  136.9357  173.6150 C.3     1  UNL1        0.0207
     34 C         134.9373  138.2362  172.8956 C.3     1  UNL1        0.0404
     35 C         136.1181  138.4149  171.9881 C.3     1  UNL1        0.0207
     36 C         137.0959  137.2931  171.8000 C.3     1  UNL1        0.0723
     37 H         136.2385  139.8693  171.2584 H       1  UNL1        0.2115
@<TRIPOS>BOND
     1     8     9    2
     2     9    10   am
     3    10    12    1
     4    12    13    1
     5    13    14    1
     6    14    15    1
     7    15    16    1
     8    16    17    2
     9    16    18    2
    10    16    19    1
    11     9     2    1
    12     2     3   ar
    13     3     4   ar
    14     4     5   ar
    15     5     1    1
    16     1    20    1
    17    20    21   ar
    18    21    22   ar
    19    22    23   ar
    20    23    26    1
    21    26    27    3
    22    27    28    1
    23    28    29    1
    24    28    30    1
    25    30    31    1
    26    31    32    1
    27    32    33    1
    28    33    34    1
    29    34    35    1
    30    35    36    1
    31    23    24   ar
    32    24    25   ar
    33     5     6   ar
    34     6     7   ar
    35    19    12    1
    36     7     2   ar
    37    25    20   ar
    38    34    28    1
    39    36    31    1
    40    10    11    1
    41    29    37    1
@<TRIPOS>MOLECULE
*****
 37 41 0 0 0
SMALL
GASTEIGER

@<TRIPOS>ATOM
      1 O         139.4906  141.3872  166.8649 O.3     1  UNL1       -0.4535
      2 C         140.8533  143.1025  162.9342 C.ar    1  UNL1        0.0536
      3 C         141.1275  143.8415  164.2104 C.ar    1  UNL1        0.0076
      4 C         140.6733  143.2697  165.5206 C.ar    1  UNL1        0.0376
      5 C         139.9448  141.9590  165.5547 C.ar    1  UNL1        0.1453
      6 C         139.6706  141.2199  164.2785 C.ar    1  UNL1        0.0376
      7 C         140.1248  141.7918  162.9682 C.ar    1  UNL1        0.0076
      8 O         142.3449  144.7574  161.5976 O.2     1  UNL1       -0.2701
      9 C         141.3076  143.6743  161.6239 C.2     1  UNL1        0.2458
     10 N         140.7243  143.1630  160.3401 N.am    1  UNL1       -0.3008
     11 H         140.0435  142.4521  160.3574 H       1  UNL1        0.1497
     12 C         141.1786  143.7348  159.0297 C.3     1  UNL1        0.0955
     13 C         142.2513  143.0436  158.2414 C.3     1  UNL1        0.0232
     14 C         142.7054  143.6154  156.9311 C.3     1  UNL1        0.0271
     15 C         142.0869  144.8784  156.4093 C.3     1  UNL1        0.1509
     16 S         141.0142  145.5696  157.1976 S.O2    1  UNL1       -0.0084
     17 O         139.9737  146.5813  157.5768 O.2     1  UNL1       -0.1729
     18 O         141.1070  146.4928  156.0190 O.2     1  UNL1       -0.1729
     19 C         140.5600  144.9977  158.5079 C.3     1  UNL1        0.1702
     20 C         140.4366  140.5716  167.6956 C.ar    1  UNL1        0.1453
     21 C         140.1382  140.3215  169.1442 C.ar    1  UNL1        0.0381
     22 C         141.0841  139.5059  169.9749 C.ar    1  UNL1        0.0114
     23 C         142.3285  138.9404  169.3569 C.ar    1  UNL1        0.0419
     24 C         142.6268  139.1905  167.9083 C.ar    1  UNL1        0.0114
     25 C         141.6809  140.0061  167.0777 C.ar    1  UNL1        0.0381
     26 C         143.2743  138.1248  170.1876 C.1     1  UNL1       -0.0621
     27 C         144.2202  137.3091  171.0182 C.1     1  UNL1       -0.0597
     28 C         145.9030  136.0174  172.7402 C.3     1  UNL1        0.1561
     29 O         145.6056  138.1872  172.0323 O.3     1  UNL1       -0.3739
     30 C         145.2346  134.8880  172.3976 C.3     1  UNL1        0.1120
     31 N         144.8591  134.1769  172.2210 N.3     1  UNL1       -0.2699
     32 C         145.9863  134.1109  173.2084 C.3     1  UNL1        0.0723
     33 C         146.7254  135.3599  173.5873 C.3     1  UNL1        0.0207
     34 C         146.3374  136.6749  172.9788 C.3     1  UNL1        0.0404
     35 C         145.2102  136.7408  171.9914 C.3     1  UNL1        0.0207
     36 C         144.4710  135.4918  171.6125 C.3     1  UNL1        0.0723
     37 H         144.8756  138.2221  171.3945 H       1  UNL1        0.2115
@<TRIPOS>BOND
     1     8     9    2
     2     9    10   am
     3    10    12    1
     4    12    13    1
     5    13    14    1
     6    14    15    1
     7    15    16    1
     8    16    17    2
     9    16    18    2
    10    16    19    1
    11     9     2    1
    12     2     3   ar
    13     3     4   ar
    14     4     5   ar
    15     5     1    1
    16     1    20    1
    17    20    21   ar
    18    21    22   ar
    19    22    23   ar
    20    23    26    1
    21    26    27    3
    22    27    28    1
    23    28    29    1
    24    28    30    1
    25    30    31    1
    26    31    32    1
    27    32    33    1
    28    33    34    1
    29    34    35    1
    30    35    36    1
    31    23    24   ar
    32    24    25   ar
    33     5     6   ar
    34     6     7   ar
    35    19    12    1
    36     7     2   ar
    37    25    20   ar
    38    34    28    1
    39    36    31    1
    40    10    11    1
    41    29    37    1
@<TRIPOS>MOLECULE
*****
 37 41 0 0 0
SMALL
GASTEIGER

@<TRIPOS>ATOM
      1 O         138.2448  139.3845  160.6721 O.3     1  UNL1       -0.4535
      2 C         139.2931  139.7672  165.0315 C.ar    1  UNL1        0.0536
      3 C         138.0761  140.4564  164.4894 C.ar    1  UNL1        0.0076
      4 C         137.7267  140.3289  163.0363 C.ar    1  UNL1        0.0376
      5 C         138.5942  139.5121  162.1252 C.ar    1  UNL1        0.1453
      6 C         139.8113  138.8228  162.6672 C.ar    1  UNL1        0.0376
      7 C         140.1607  138.9504  164.1204 C.ar    1  UNL1        0.0076
      8 O         138.7961  139.2182  167.5218 O.2     1  UNL1       -0.2701
      9 C         139.6425  139.8948  166.4847 C.2     1  UNL1        0.2458
     10 N         140.8384  140.6991  166.9006 N.am    1  UNL1       -0.3008
     11 H         141.3939  141.1431  166.2198 H       1  UNL1        0.1497
     12 C         141.1879  140.8267  168.3538 C.3     1  UNL1        0.0955
     13 C         142.4307  140.1771  168.8861 C.3     1  UNL1        0.0232
     14 C         142.7801  140.3049  170.3393 C.3     1  UNL1        0.0271
     15 C         141.8867  141.0821  171.2600 C.3     1  UNL1        0.1509
     16 S         140.6439  141.7316  170.7276 S.O2    1  UNL1       -0.0084
     17 O         139.3686  142.5207  170.6960 O.2     1  UNL1       -0.1729
     18 O         140.5504  142.1333  172.1698 O.2     1  UNL1       -0.1729
     19 C         140.2945  141.6039  169.2744 C.3     1  UNL1        0.1702
     20 C         138.4788  140.5367  159.7404 C.ar    1  UNL1        0.1453
     21 C         137.7530  140.6003  158.4293 C.ar    1  UNL1        0.0381
     22 C         137.9870  141.7524  157.4976 C.ar    1  UNL1        0.0114
     23 C         138.9468  142.8409  157.8772 C.ar    1  UNL1        0.0419
     24 C         139.6725  142.7772  159.1884 C.ar    1  UNL1        0.0114
     25 C         139.4385  141.6251  160.1200 C.ar    1  UNL1        0.0381
     26 C         139.1807  143.9929  156.9456 C.1     1  UNL1       -0.0621
     27 C         139.4146  145.1450  156.0139 C.1     1  UNL1       -0.0597
     28 C         140.0909  147.2834  154.4533 C.3     1  UNL1        0.1561
     29 O         140.6215  145.0445  154.5133 O.3     1  UNL1       -0.3739
     30 C         139.2723  148.0083  155.2558 C.3     1  UNL1        0.1120
     31 N         138.7867  148.4890  155.7152 N.3     1  UNL1       -0.2699
     32 C         139.5074  149.1553  154.5809 C.3     1  UNL1        0.0723
     33 C         140.4127  148.3536  153.6935 C.3     1  UNL1        0.0207
     34 C         140.5973  146.8856  153.9403 C.3     1  UNL1        0.0404
     35 C         139.8766  146.2193  155.0745 C.3     1  UNL1        0.0207
     36 C         138.9713  147.0210  155.9620 C.3     1  UNL1        0.0723
     37 H         140.1521  144.6205  155.2487 H       1  UNL1        0.2115
@<TRIPOS>BOND
     1     8     9    2
     2     9    10   am
     3    10    12    1
     4    12    13    1
     5    13    14    1
     6    14    15    1
     7    15    16    1
     8    16    17    2
     9    16    18    2
    10    16    19    1
    11     9     2    1
    12     2     3   ar
    13     3     4   ar
    14     4     5   ar
    15     5     1    1
    16     1    20    1
    17    20    21   ar
    18    21    22   ar
    19    22    23   ar
    20    23    26    1
    21    26    27    3
    22    27    28    1
    23    28    29    1
    24    28    30    1
    25    30    31    1
    26    31    32    1
    27    32    33    1
    28    33    34    1
    29    34    35    1
    30    35    36    1
    31    23    24   ar
    32    24    25   ar
    33     5     6   ar
    34     6     7   ar
    35    19    12    1
    36     7     2   ar
    37    25    20   ar
    38    34    28    1
    39    36    31    1
    40    10    11    1
    41    29    37    1
@<TRIPOS>MOLECULE
*****
 37 41 0 0 0
SMALL
GASTEIGER

@<TRIPOS>ATOM
      1 O         139.6003  141.5954  166.9366 O.3     1  UNL1       -0.4535
      2 C         138.7834  140.5290  162.6418 C.ar    1  UNL1        0.0536
      3 C         138.1249  139.7549  163.7451 C.ar    1  UNL1        0.0076
      4 C         138.3972  140.1104  165.1766 C.ar    1  UNL1        0.0376
      5 C         139.3280  141.2399  165.5050 C.ar    1  UNL1        0.1453
      6 C         139.9865  142.0140  164.4017 C.ar    1  UNL1        0.0376
      7 C         139.7141  141.6585  162.9700 C.ar    1  UNL1        0.0076
      8 O         137.3986  139.2262  160.8711 O.2     1  UNL1       -0.2701
      9 C         138.5110  140.1734  161.2101 C.2     1  UNL1        0.2458
     10 N         139.3513  140.7653  160.1176 N.am    1  UNL1       -0.3008
     11 H         140.0815  141.3870  160.3401 H       1  UNL1        0.1497
     12 C         139.0790  140.4098  158.6859 C.3     1  UNL1        0.0955
     13 C         138.1985  141.2897  157.8491 C.3     1  UNL1        0.0232
     14 C         137.9262  140.9342  156.4174 C.3     1  UNL1        0.0271
     15 C         138.5346  139.6988  155.8228 C.3     1  UNL1        0.1509
     16 S         139.4152  138.8189  156.6596 S.O2    1  UNL1       -0.0084
     17 O         140.3090  137.6780  157.0459 O.2     1  UNL1       -0.1729
     18 O         139.4534  138.0671  155.3621 O.2     1  UNL1       -0.1729
     19 C         139.6874  139.1744  158.0912 C.3     1  UNL1        0.1702
     20 C         140.5205  140.7429  167.7591 C.ar    1  UNL1        0.1453
     21 C         140.1879  140.4459  169.1912 C.ar    1  UNL1        0.0381
     22 C         141.1081  139.5935  170.0137 C.ar    1  UNL1        0.0114
     23 C         142.3611  139.0380  169.4040 C.ar    1  UNL1        0.0419
     24 C         142.6937  139.3351  167.9719 C.ar    1  UNL1        0.0114
     25 C         141.7734  140.1875  167.1494 C.ar    1  UNL1        0.0381
     26 C         143.2813  138.1856  170.2265 C.1     1  UNL1       -0.0621
     27 C         144.2014  137.3331  171.0490 C.1     1  UNL1       -0.0597
     28 C         145.9288  136.0151  172.7057 C.3     1  UNL1        0.1561
     29 O         145.6433  138.1880  172.0023 O.3     1  UNL1       -0.3739
     30 C         145.2260  134.8975  172.3949 C.3     1  UNL1        0.1120
     31 N         144.8303  134.1930  172.2365 N.3     1  UNL1       -0.2699
     32 C         145.9956  134.1088  173.1772 C.3     1  UNL1        0.0723
     33 C         146.7728  135.3448  173.5209 C.3     1  UNL1        0.0207
     34 C         146.3848  136.6650  172.9238 C.3     1  UNL1        0.0404
     35 C         145.2196  136.7492  171.9831 C.3     1  UNL1        0.0207
     36 C         144.4423  135.5132  171.6394 C.3     1  UNL1        0.0723
     37 H         144.8886  138.2347  171.3948 H       1  UNL1        0.2115
@<TRIPOS>BOND
     1     8     9    2
     2     9    10   am
     3    10    12    1
     4    12    13    1
     5    13    14    1
     6    14    15    1
     7    15    16    1
     8    16    17    2
     9    16    18    2
    10    16    19    1
    11     9     2    1
    12     2     3   ar
    13     3     4   ar
    14     4     5   ar
    15     5     1    1
    16     1    20    1
    17    20    21   ar
    18    21    22   ar
    19    22    23   ar
    20    23    26    1
    21    26    27    3
    22    27    28    1
    23    28    29    1
    24    28    30    1
    25    30    31    1
    26    31    32    1
    27    32    33    1
    28    33    34    1
    29    34    35    1
    30    35    36    1
    31    23    24   ar
    32    24    25   ar
    33     5     6   ar
    34     6     7   ar
    35    19    12    1
    36     7     2   ar
    37    25    20   ar
    38    34    28    1
    39    36    31    1
    40    10    11    1
    41    29    37    1
@<TRIPOS>MOLECULE
*****
 37 41 0 0 0
SMALL
GASTEIGER

@<TRIPOS>ATOM
      1 O         143.4061  141.8482  160.1493 O.3     1  UNL1       -0.4535
      2 C         143.0682  141.9406  164.6356 C.ar    1  UNL1        0.0536
      3 C         141.8321  142.0103  163.7888 C.ar    1  UNL1        0.0076
      4 C         141.9447  141.9795  162.2934 C.ar    1  UNL1        0.0376
      5 C         143.2935  141.8790  161.6447 C.ar    1  UNL1        0.1453
      6 C         144.5297  141.8093  162.4916 C.ar    1  UNL1        0.0376
      7 C         144.4170  141.8402  163.9871 C.ar    1  UNL1        0.0076
      8 O         143.8013  142.9202  166.9276 O.2     1  UNL1       -0.2701
      9 C         142.9556  141.9715  166.1311 C.2     1  UNL1        0.2458
     10 N         141.9971  141.0534  166.8300 N.am    1  UNL1       -0.3008
     11 H         141.4420  140.4307  166.3072 H       1  UNL1        0.1497
     12 C         141.8843  141.0842  168.3255 C.3     1  UNL1        0.0955
     13 C         142.7428  140.1816  169.1611 C.3     1  UNL1        0.0232
     14 C         142.6300  140.2124  170.6565 C.3     1  UNL1        0.0271
     15 C         141.6588  141.1458  171.3163 C.3     1  UNL1        0.1509
     16 S         140.8003  142.0484  170.4808 S.O2    1  UNL1       -0.0084
     17 O         139.7795  143.0870  170.1211 O.2     1  UNL1       -0.1729
     18 O         140.3330  142.4399  171.8513 O.2     1  UNL1       -0.1729
     19 C         140.9131  142.0176  168.9853 C.3     1  UNL1        0.1702
     20 C         143.2364  140.5536  159.4109 C.ar    1  UNL1        0.1453
     21 C         143.1185  139.2662  160.1715 C.ar    1  UNL1        0.0381
     22 C         142.9489  137.9716  159.4332 C.ar    1  UNL1        0.0114
     23 C         142.8971  137.9644  157.9340 C.ar    1  UNL1        0.0419
     24 C         143.0149  139.2518  157.1734 C.ar    1  UNL1        0.0114
     25 C         143.1846  140.5464  157.9118 C.ar    1  UNL1        0.0381
     26 C         142.7274  136.6698  157.1957 C.1     1  UNL1       -0.0621
     27 C         142.5577  135.3753  156.4573 C.1     1  UNL1       -0.0597
     28 C         142.2919  132.8851  155.3644 C.3     1  UNL1        0.1561
     29 O         140.9290  134.7158  155.6628 O.3     1  UNL1       -0.3739
     30 C         143.5901  132.6978  155.7095 C.3     1  UNL1        0.1120
     31 N         144.3752  132.5378  155.8992 N.3     1  UNL1       -0.2699
     32 C         143.6167  131.4422  155.2105 C.3     1  UNL1        0.0723
     33 C         142.1810  131.6493  154.8289 C.3     1  UNL1        0.0207
     34 C         141.5037  132.9520  155.1361 C.3     1  UNL1        0.0404
     35 C         142.2622  134.0476  155.8248 C.3     1  UNL1        0.0207
     36 C         143.6979  133.8405  156.2063 C.3     1  UNL1        0.0723
     37 H         141.4259  135.4196  156.1084 H       1  UNL1        0.2115
@<TRIPOS>BOND
     1     8     9    2
     2     9    10   am
     3    10    12    1
     4    12    13    1
     5    13    14    1
     6    14    15    1
     7    15    16    1
     8    16    17    2
     9    16    18    2
    10    16    19    1
    11     9     2    1
    12     2     3   ar
    13     3     4   ar
    14     4     5   ar
    15     5     1    1
    16     1    20    1
    17    20    21   ar
    18    21    22   ar
    19    22    23   ar
    20    23    26    1
    21    26    27    3
    22    27    28    1
    23    28    29    1
    24    28    30    1
    25    30    31    1
    26    31    32    1
    27    32    33    1
    28    33    34    1
    29    34    35    1
    30    35    36    1
    31    23    24   ar
    32    24    25   ar
    33     5     6   ar
    34     6     7   ar
    35    19    12    1
    36     7     2   ar
    37    25    20   ar
    38    34    28    1
    39    36    31    1
    40    10    11    1
    41    29    37    1
@<TRIPOS>MOLECULE
*****
 37 41 0 0 0
SMALL
GASTEIGER

@<TRIPOS>ATOM
      1 O         142.1497  142.7276  166.8057 O.3     1  UNL1       -0.4535
      2 C         142.4545  141.7864  162.4158 C.ar    1  UNL1        0.0536
      3 C         143.4799  141.2509  163.3707 C.ar    1  UNL1        0.0076
      4 C         143.3783  141.5646  164.8339 C.ar    1  UNL1        0.0376
      5 C         142.2513  142.4139  165.3425 C.ar    1  UNL1        0.1453
      6 C         141.2258  142.9495  164.3876 C.ar    1  UNL1        0.0376
      7 C         141.3274  142.6357  162.9243 C.ar    1  UNL1        0.0076
      8 O         141.7364  142.2443  159.9613 O.2     1  UNL1       -0.2701
      9 C         142.5561  141.4727  160.9525 C.2     1  UNL1        0.2458
     10 N         143.4774  140.3872  160.4805 N.am    1  UNL1       -0.3008
     11 H         144.0154  139.8807  161.1312 H       1  UNL1        0.1497
     12 C         143.5791  140.0734  159.0172 C.3     1  UNL1        0.0955
     13 C         142.8744  138.8737  158.4567 C.3     1  UNL1        0.0232
     14 C         142.9761  138.5600  156.9934 C.3     1  UNL1        0.0271
     15 C         143.7826  139.4458  156.0907 C.3     1  UNL1        0.1509
     16 S         144.4873  140.6455  156.6512 S.O2    1  UNL1       -0.0084
     17 O         145.3289  141.8857  156.7108 O.2     1  UNL1       -0.1729
     18 O         144.8813  140.7624  155.2086 O.2     1  UNL1       -0.1729
     19 C         144.3856  140.9592  158.1145 C.3     1  UNL1        0.1702
     20 C         141.1454  142.0106  167.6586 C.ar    1  UNL1        0.1453
     21 C         140.6545  142.6398  168.9286 C.ar    1  UNL1        0.0381
     22 C         139.6502  141.9229  169.7815 C.ar    1  UNL1        0.0114
     23 C         139.1368  140.5766  169.3642 C.ar    1  UNL1        0.0419
     24 C         139.6277  139.9474  168.0942 C.ar    1  UNL1        0.0114
     25 C         140.6320  140.6644  167.2413 C.ar    1  UNL1        0.0381
     26 C         138.1325  139.8597  170.2170 C.1     1  UNL1       -0.0621
     27 C         137.1281  139.1429  171.0698 C.1     1  UNL1       -0.0597
     28 C         135.5160  137.6711  172.7132 C.3     1  UNL1        0.1561
     29 O         135.4810  139.7965  171.8306 O.3     1  UNL1       -0.3739
     30 C         136.4269  136.6777  172.5614 C.3     1  UNL1        0.1120
     31 N         136.9514  136.0460  172.4995 N.3     1  UNL1       -0.2699
     32 C         135.7398  135.8280  173.3565 C.3     1  UNL1        0.0723
     33 C         134.7324  136.9266  173.5244 C.3     1  UNL1        0.0207
     34 C         134.9366  138.2431  172.8352 C.3     1  UNL1        0.0404
     35 C         136.1482  138.4611  171.9782 C.3     1  UNL1        0.0207
     36 C         137.1556  137.3626  171.8103 C.3     1  UNL1        0.0723
     37 H         136.2670  139.9301  171.2780 H       1  UNL1        0.2115
@<TRIPOS>BOND
     1     8     9    2
     2     9    10   am
     3    10    12    1
     4    12    13    1
     5    13    14    1
     6    14    15    1
     7    15    16    1
     8    16    17    2
     9    16    18    2
    10    16    19    1
    11     9     2    1
    12     2     3   ar
    13     3     4   ar
    14     4     5   ar
    15     5     1    1
    16     1    20    1
    17    20    21   ar
    18    21    22   ar
    19    22    23   ar
    20    23    26    1
    21    26    27    3
    22    27    28    1
    23    28    29    1
    24    28    30    1
    25    30    31    1
    26    31    32    1
    27    32    33    1
    28    33    34    1
    29    34    35    1
    30    35    36    1
    31    23    24   ar
    32    24    25   ar
    33     5     6   ar
    34     6     7   ar
    35    19    12    1
    36     7     2   ar
    37    25    20   ar
    38    34    28    1
    39    36    31    1
    40    10    11    1
    41    29    37    1
@<TRIPOS>MOLECULE
*****
 37 41 0 0 0
SMALL
GASTEIGER

@<TRIPOS>ATOM
      1 O         141.6462  141.4584  159.6958 O.3     1  UNL1       -0.4535
      2 C         141.6689  141.9202  164.1720 C.ar    1  UNL1        0.0536
      3 C         140.4029  141.5384  163.4638 C.ar    1  UNL1        0.0076
      4 C         140.3954  141.3845  161.9717 C.ar    1  UNL1        0.0376
      5 C         141.6538  141.6123  161.1878 C.ar    1  UNL1        0.1453
      6 C         142.9198  141.9941  161.8961 C.ar    1  UNL1        0.0376
      7 C         142.9273  142.1480  163.3882 C.ar    1  UNL1        0.0076
      8 O         142.9522  142.4118  166.3768 O.2     1  UNL1       -0.2701
      9 C         141.6764  142.0741  165.6641 C.2     1  UNL1        0.2458
     10 N         140.4080  141.8903  166.4433 N.am    1  UNL1       -0.3008
     11 H         139.5706  141.6686  165.9754 H       1  UNL1        0.1497
     12 C         140.4154  142.0442  167.9355 C.3     1  UNL1        0.0955
     13 C         140.3867  143.4129  168.5484 C.3     1  UNL1        0.0232
     14 C         140.3941  143.5667  170.0405 C.3     1  UNL1        0.0271
     15 C         140.4302  142.3518  170.9195 C.3     1  UNL1        0.1509
     16 S         140.4588  140.9831  170.3066 S.O2    1  UNL1       -0.0084
     17 O         140.4943  139.4874  170.1987 O.2     1  UNL1       -0.1729
     18 O         140.4786  140.6175  171.7612 O.2     1  UNL1       -0.1729
     19 C         140.4514  140.8293  168.8144 C.3     1  UNL1        0.1702
     20 C         141.9792  140.1333  159.0768 C.ar    1  UNL1        0.1453
     21 C         142.3586  138.9727  159.9480 C.ar    1  UNL1        0.0381
     22 C         142.6916  137.6475  159.3291 C.ar    1  UNL1        0.0114
     23 C         142.6452  137.4830  157.8387 C.ar    1  UNL1        0.0419
     24 C         142.2658  138.6436  156.9676 C.ar    1  UNL1        0.0114
     25 C         141.9328  139.9688  157.5866 C.ar    1  UNL1        0.0381
     26 C         142.9782  136.1579  157.2198 C.1     1  UNL1       -0.0621
     27 C         143.3111  134.8328  156.6008 C.1     1  UNL1       -0.0597
     28 C         144.0435  132.3511  155.7231 C.3     1  UNL1        0.1561
     29 O         144.5802  133.7001  157.5092 O.3     1  UNL1       -0.3739
     30 C         143.1891  132.5666  154.6920 C.3     1  UNL1        0.1120
     31 N         142.6827  132.6519  154.0484 N.3     1  UNL1       -0.2699
     32 C         143.4476  131.3643  154.1319 C.3     1  UNL1        0.0723
     33 C         144.3925  131.1259  155.2722 C.3     1  UNL1        0.0207
     34 C         144.5725  132.1751  156.3289 C.3     1  UNL1        0.0404
     35 C         143.8077  133.4627  156.2454 C.3     1  UNL1        0.0207
     36 C         142.8628  133.7011  155.1051 C.3     1  UNL1        0.0723
     37 H         144.0821  134.5303  157.4484 H       1  UNL1        0.2115
@<TRIPOS>BOND
     1     8     9    2
     2     9    10   am
     3    10    12    1
     4    12    13    1
     5    13    14    1
     6    14    15    1
     7    15    16    1
     8    16    17    2
     9    16    18    2
    10    16    19    1
    11     9     2    1
    12     2     3   ar
    13     3     4   ar
    14     4     5   ar
    15     5     1    1
    16     1    20    1
    17    20    21   ar
    18    21    22   ar
    19    22    23   ar
    20    23    26    1
    21    26    27    3
    22    27    28    1
    23    28    29    1
    24    28    30    1
    25    30    31    1
    26    31    32    1
    27    32    33    1
    28    33    34    1
    29    34    35    1
    30    35    36    1
    31    23    24   ar
    32    24    25   ar
    33     5     6   ar
    34     6     7   ar
    35    19    12    1
    36     7     2   ar
    37    25    20   ar
    38    34    28    1
    39    36    31    1
    40    10    11    1
    41    29    37    1
@<TRIPOS>MOLECULE
*****
 37 41 0 0 0
SMALL
GASTEIGER

@<TRIPOS>ATOM
      1 O         139.8972  142.3331  167.0622 O.3     1  UNL1       -0.4535
      2 C         139.8710  142.2227  162.5637 C.ar    1  UNL1        0.0536
      3 C         138.8877  141.3978  163.3399 C.ar    1  UNL1        0.0076
      4 C         138.8964  141.4346  164.8393 C.ar    1  UNL1        0.0376
      5 C         139.8884  142.2963  165.5627 C.ar    1  UNL1        0.1453
      6 C         140.8719  143.1212  164.7865 C.ar    1  UNL1        0.0376
      7 C         140.8631  143.0844  163.2869 C.ar    1  UNL1        0.0076
      8 O         141.0211  141.5895  160.3217 O.2     1  UNL1       -0.2701
      9 C         139.8623  142.1859  161.0641 C.2     1  UNL1        0.2458
     10 N         138.6946  142.7455  160.3070 N.am    1  UNL1       -0.3008
     11 H         137.9339  143.1370  160.7943 H       1  UNL1        0.1497
     12 C         138.6857  142.7088  158.8074 C.3     1  UNL1        0.0955
     13 C         139.4941  143.7033  158.0281 C.3     1  UNL1        0.0232
     14 C         139.4852  143.6665  156.5285 C.3     1  UNL1        0.0271
     15 C         138.6680  142.6351  155.8085 C.3     1  UNL1        0.1509
     16 S         137.8597  141.6406  156.5878 S.O2    1  UNL1       -0.0084
     17 O         136.9370  140.4951  156.8820 O.2     1  UNL1       -0.1729
     18 O         137.5303  141.2060  155.1905 O.2     1  UNL1       -0.1729
     19 C         137.8685  141.6774  158.0874 C.3     1  UNL1        0.1702
     20 C         140.6714  141.3053  167.8332 C.ar    1  UNL1        0.1453
     21 C         140.2178  140.8968  169.2033 C.ar    1  UNL1        0.0381
     22 C         140.9920  139.8691  169.9743 C.ar    1  UNL1        0.0114
     23 C         142.2199  139.2499  169.3751 C.ar    1  UNL1        0.0419
     24 C         142.6735  139.6585  168.0050 C.ar    1  UNL1        0.0114
     25 C         141.8993  140.6862  167.2340 C.ar    1  UNL1        0.0381
     26 C         142.9941  138.2222  170.1461 C.1     1  UNL1       -0.0621
     27 C         143.7681  137.1945  170.9171 C.1     1  UNL1       -0.0597
     28 C         145.3914  135.5155  172.3354 C.3     1  UNL1        0.1561
     29 O         143.1409  135.6388  171.8685 O.3     1  UNL1       -0.3739
     30 C         146.4077  136.3291  171.9551 C.3     1  UNL1        0.1120
     31 N         147.0562  136.7931  171.7498 N.3     1  UNL1       -0.2699
     32 C         147.3352  135.5970  172.6109 C.3     1  UNL1        0.0723
     33 C         146.2112  134.6972  173.0316 C.3     1  UNL1        0.0207
     34 C         144.8083  134.9935  172.5912 C.3     1  UNL1        0.0404
     35 C         144.5293  136.1896  171.7301 C.3     1  UNL1        0.0207
     36 C         145.6533  137.0894  171.3095 C.3     1  UNL1        0.0723
     37 H         142.9682  136.4141  171.3117 H       1  UNL1        0.2115
@<TRIPOS>BOND
     1     8     9    2
     2     9    10   am
     3    10    12    1
     4    12    13    1
     5    13    14    1
     6    14    15    1
     7    15    16    1
     8    16    17    2
     9    16    18    2
    10    16    19    1
    11     9     2    1
    12     2     3   ar
    13     3     4   ar
    14     4     5   ar
    15     5     1    1
    16     1    20    1
    17    20    21   ar
    18    21    22   ar
    19    22    23   ar
    20    23    26    1
    21    26    27    3
    22    27    28    1
    23    28    29    1
    24    28    30    1
    25    30    31    1
    26    31    32    1
    27    32    33    1
    28    33    34    1
    29    34    35    1
    30    35    36    1
    31    23    24   ar
    32    24    25   ar
    33     5     6   ar
    34     6     7   ar
    35    19    12    1
    36     7     2   ar
    37    25    20   ar
    38    34    28    1
    39    36    31    1
    40    10    11    1
    41    29    37    1
@<TRIPOS>MOLECULE
*****
 37 41 0 0 0
SMALL
GASTEIGER

@<TRIPOS>ATOM
      1 O         144.5711  142.7869  160.4280 O.3     1  UNL1       -0.4535
      2 C         143.3664  142.3924  164.7457 C.ar    1  UNL1        0.0536
      3 C         142.3902  142.9279  163.7406 C.ar    1  UNL1        0.0076
      4 C         142.7918  143.0594  162.3014 C.ar    1  UNL1        0.0376
      5 C         144.1695  142.6554  161.8672 C.ar    1  UNL1        0.1453
      6 C         145.1458  142.1198  162.8724 C.ar    1  UNL1        0.0376
      7 C         144.7441  141.9883  164.3116 C.ar    1  UNL1        0.0076
      8 O         143.8181  142.8656  167.2601 O.2     1  UNL1       -0.2701
      9 C         142.9647  142.2608  166.1850 C.2     1  UNL1        0.2458
     10 N         141.7096  141.5245  166.5490 N.am    1  UNL1       -0.3008
     11 H         141.1495  141.1276  165.8434 H       1  UNL1        0.1497
     12 C         141.3079  141.3930  167.9883 C.3     1  UNL1        0.0955
     13 C         141.4917  140.0864  168.7018 C.3     1  UNL1        0.0232
     14 C         141.0899  139.9550  170.1411 C.3     1  UNL1        0.0271
     15 C         140.5045  141.1300  170.8666 C.3     1  UNL1        0.1509
     16 S         140.3207  142.4365  170.1531 S.O2    1  UNL1       -0.0084
     17 O         139.9531  143.8703  169.9100 O.2     1  UNL1       -0.1729
     18 O         139.7913  142.8030  171.5079 O.2     1  UNL1       -0.1729
     19 C         140.7224  142.5680  168.7139 C.3     1  UNL1        0.1702
     20 C         144.2212  141.7049  159.4498 C.ar    1  UNL1        0.1453
     21 C         143.5667  140.4433  159.9293 C.ar    1  UNL1        0.0381
     22 C         143.2168  139.3613  158.9512 C.ar    1  UNL1        0.0114
     23 C         143.5213  139.5410  157.4933 C.ar    1  UNL1        0.0419
     24 C         144.1758  140.8026  157.0138 C.ar    1  UNL1        0.0114
     25 C         144.5257  141.8846  157.9921 C.ar    1  UNL1        0.0381
     26 C         143.1714  138.4590  156.5152 C.1     1  UNL1       -0.0621
     27 C         142.8215  137.3771  155.5370 C.1     1  UNL1       -0.0597
     28 C         142.0654  135.2654  153.9765 C.3     1  UNL1        0.1561
     29 O         142.7409  137.4352  153.6112 O.3     1  UNL1       -0.3739
     30 C         141.9073  134.5843  155.1388 C.3     1  UNL1        0.1120
     31 N         141.7971  134.1308  155.8171 N.3     1  UNL1       -0.2699
     32 C         141.5137  133.4559  154.5078 C.3     1  UNL1        0.0723
     33 C         141.6886  134.2091  153.2225 C.3     1  UNL1        0.0207
     34 C         142.1468  135.6372  153.2465 C.3     1  UNL1        0.0404
     35 C         142.4302  136.3121  154.5557 C.3     1  UNL1        0.0207
     36 C         142.2553  135.5589  155.8410 C.3     1  UNL1        0.0723
     37 H         142.9222  137.8650  154.4616 H       1  UNL1        0.2115
@<TRIPOS>BOND
     1     8     9    2
     2     9    10   am
     3    10    12    1
     4    12    13    1
     5    13    14    1
     6    14    15    1
     7    15    16    1
     8    16    17    2
     9    16    18    2
    10    16    19    1
    11     9     2    1
    12     2     3   ar
    13     3     4   ar
    14     4     5   ar
    15     5     1    1
    16     1    20    1
    17    20    21   ar
    18    21    22   ar
    19    22    23   ar
    20    23    26    1
    21    26    27    3
    22    27    28    1
    23    28    29    1
    24    28    30    1
    25    30    31    1
    26    31    32    1
    27    32    33    1
    28    33    34    1
    29    34    35    1
    30    35    36    1
    31    23    24   ar
    32    24    25   ar
    33     5     6   ar
    34     6     7   ar
    35    19    12    1
    36     7     2   ar
    37    25    20   ar
    38    34    28    1
    39    36    31    1
    40    10    11    1
    41    29    37    1
