@<TRIPOS>MOLECULE
*****
 31 35 0 0 0
SMALL
GASTEIGER

@<TRIPOS>ATOM
      1 O         144.0950  138.7449  156.8556 O.2     1  UNL1       -0.2699
      2 C         144.1476  140.1425  156.3135 C.2     1  UNL1        0.2490
      3 N         143.4228  141.2491  157.0208 N.am    1  UNL1       -0.2761
      4 C         142.6455  140.9580  158.2701 C.3     1  UNL1        0.0938
      5 C         141.9207  142.0646  158.9774 C.3     1  UNL1        0.0233
      6 C         141.9733  143.4622  158.4352 C.3     1  UNL1        0.0233
      7 C         142.7507  143.7533  157.1859 C.3     1  UNL1        0.0233
      8 C         143.4754  142.6467  156.4786 C.3     1  UNL1        0.0938
      9 C         141.9350  144.9014  158.0142 C.3     1  UNL1        0.0233
     10 C         141.0975  145.6526  159.0065 C.3     1  UNL1        0.0950
     11 N         140.6183  144.6775  160.0408 N.am    1  UNL1       -0.2640
     12 C         139.7504  144.9997  161.2209 C.2     1  UNL1        0.3072
     13 O         139.2831  146.4071  161.4464 O.2     1  UNL1       -0.2523
     14 N         139.3496  143.9144  162.1757 N.am    1  UNL1       -0.2626
     15 C         138.4811  144.3432  163.3211 C.3     1  UNL1        0.0964
     16 C         137.9188  143.5073  164.4324 C.3     1  UNL1        0.0389
     17 C         138.0861  142.0362  164.6729 C.3     1  UNL1        0.0739
     18 N         138.8570  141.0377  163.8614 N.3     1  UNL1       -0.2725
     19 C         139.6510  141.2635  162.6090 C.3     1  UNL1        0.0939
     20 C         139.8702  142.5439  161.8587 C.3     1  UNL1        0.1122
     21 C         141.1596  143.3239  159.6878 C.3     1  UNL1        0.0950
     22 C         144.9250  140.4336  155.0641 C.ar    1  UNL1        0.0536
     23 C         146.2612  141.1094  155.1525 C.ar    1  UNL1        0.0045
     24 C         147.0386  141.4004  153.9030 C.ar    1  UNL1        0.0001
     25 C         146.4797  141.0158  152.5653 C.ar    1  UNL1        0.0000
     26 C         145.1435  140.3400  152.4769 C.ar    1  UNL1        0.0001
     27 C         144.3661  140.0489  153.7263 C.ar    1  UNL1        0.0045
     28 C         138.8304  139.6265  164.3695 C.3     1  UNL1        0.0576
     29 C         138.4347  138.9709  165.6592 C.3     1  UNL1        0.0160
     30 C         138.7927  137.6310  165.0879 C.3     1  UNL1        0.0028
     31 C         139.1884  138.2866  163.7981 C.3     1  UNL1        0.0160
@<TRIPOS>BOND
     1     1     2    2
     2     2    22    1
     3    22    23   ar
     4    23    24   ar
     5    24    25   ar
     6    25    26   ar
     7    26    27   ar
     8     2     3   am
     9     3     4    1
    10     4     5    1
    11     5     6    1
    12     6     7    1
    13     7     8    1
    14     6     9    1
    15     9    10    1
    16    10    11    1
    17    11    12   am
    18    12    13    2
    19    12    14   am
    20    14    15    1
    21    15    16    1
    22    16    17    1
    23    17    18    1
    24    18    28    1
    25    28    29    1
    26    29    30    1
    27    30    31    1
    28    18    19    1
    29    19    20    1
    30    11    21    1
    31    27    22   ar
    32     8     3    1
    33    20    14    1
    34    21     6    1
    35    31    28    1
@<TRIPOS>MOLECULE
*****
 31 35 0 0 0
SMALL
GASTEIGER

@<TRIPOS>ATOM
      1 O         139.2965  138.3072  163.5909 O.2     1  UNL1       -0.2699
      2 C         140.3442  139.3489  163.8495 C.2     1  UNL1        0.2490
      3 N         140.5300  140.4817  162.8840 N.am    1  UNL1       -0.2761
      4 C         139.6680  140.5728  161.6598 C.3     1  UNL1        0.0938
      5 C         139.8538  141.7055  160.6943 C.3     1  UNL1        0.0233
      6 C         140.9016  142.7473  160.9530 C.3     1  UNL1        0.0233
      7 C         141.7636  142.6563  162.1771 C.3     1  UNL1        0.0233
      8 C         141.5778  141.5235  163.1426 C.3     1  UNL1        0.0938
      9 C         141.9028  143.8572  161.0781 C.3     1  UNL1        0.0233
     10 C         141.7388  144.7650  159.8952 C.3     1  UNL1        0.0950
     11 N         140.6362  144.2161  159.0390 N.am    1  UNL1       -0.2640
     12 C         140.1384  144.8099  157.7547 C.2     1  UNL1        0.3072
     13 O         140.7566  146.0680  157.2209 O.2     1  UNL1       -0.2523
     14 N         139.0224  144.1456  157.0042 N.am    1  UNL1       -0.2626
     15 C         138.6008  144.8207  155.7327 C.3     1  UNL1        0.0964
     16 C         137.5283  144.4110  154.7674 C.3     1  UNL1        0.0389
     17 C         136.6125  143.2250  154.8352 C.3     1  UNL1        0.0739
     18 N         136.5430  142.1558  155.8849 N.3     1  UNL1       -0.2725
     19 C         137.3721  142.0084  157.1262 C.3     1  UNL1        0.0939
     20 C         138.4756  142.8941  157.6243 C.3     1  UNL1        0.1122
     21 C         140.1188  142.9691  159.6927 C.3     1  UNL1        0.0950
     22 C         141.2062  139.2579  165.0737 C.ar    1  UNL1        0.0536
     23 C         142.4942  138.4904  165.0287 C.ar    1  UNL1        0.0045
     24 C         143.3562  138.3994  166.2530 C.ar    1  UNL1        0.0001
     25 C         142.9302  139.0759  167.5222 C.ar    1  UNL1        0.0000
     26 C         141.6422  139.8434  167.5672 C.ar    1  UNL1        0.0001
     27 C         140.7802  139.9344  166.3430 C.ar    1  UNL1        0.0045
     28 C         135.5073  141.0933  155.6641 C.3     1  UNL1        0.0576
     29 C         134.5637  140.3322  156.5474 C.3     1  UNL1        0.0160
     30 C         134.0428  139.5908  155.3519 C.3     1  UNL1        0.0028
     31 C         134.9864  140.3519  154.4687 C.3     1  UNL1        0.0160
@<TRIPOS>BOND
     1     1     2    2
     2     2    22    1
     3    22    23   ar
     4    23    24   ar
     5    24    25   ar
     6    25    26   ar
     7    26    27   ar
     8     2     3   am
     9     3     4    1
    10     4     5    1
    11     5     6    1
    12     6     7    1
    13     7     8    1
    14     6     9    1
    15     9    10    1
    16    10    11    1
    17    11    12   am
    18    12    13    2
    19    12    14   am
    20    14    15    1
    21    15    16    1
    22    16    17    1
    23    17    18    1
    24    18    28    1
    25    28    29    1
    26    29    30    1
    27    30    31    1
    28    18    19    1
    29    19    20    1
    30    11    21    1
    31    27    22   ar
    32     8     3    1
    33    20    14    1
    34    21     6    1
    35    31    28    1
@<TRIPOS>MOLECULE
*****
 31 35 0 0 0
SMALL
GASTEIGER

@<TRIPOS>ATOM
      1 O         141.0344  136.7147  164.1139 O.2     1  UNL1       -0.2699
      2 C         140.2866  138.0149  164.1308 C.2     1  UNL1        0.2490
      3 N         139.8796  138.6628  162.8406 N.am    1  UNL1       -0.2761
      4 C         140.2203  138.0105  161.5336 C.3     1  UNL1        0.0938
      5 C         139.8132  138.6584  160.2434 C.3     1  UNL1        0.0233
      6 C         139.0654  139.9586  160.2603 C.3     1  UNL1        0.0233
      7 C         138.7247  140.6109  161.5674 C.3     1  UNL1        0.0233
      8 C         139.1317  139.9630  162.8575 C.3     1  UNL1        0.0938
      9 C         138.3177  141.2514  160.1204 C.3     1  UNL1        0.0233
     10 C         138.1247  141.5193  158.6571 C.3     1  UNL1        0.0950
     11 N         138.7532  140.3919  157.8927 N.am    1  UNL1       -0.2640
     12 C         138.7933  140.2535  156.3997 C.2     1  UNL1        0.3072
     13 O         138.1658  141.3038  155.5320 O.2     1  UNL1       -0.2523
     14 N         139.4609  139.0647  155.7744 N.am    1  UNL1       -0.2626
     15 C         139.4450  139.0232  154.2750 C.3     1  UNL1        0.0964
     16 C         140.0204  137.9814  153.3621 C.3     1  UNL1        0.0389
     17 C         140.7537  136.7237  153.7230 C.3     1  UNL1        0.0739
     18 N         141.0929  136.1972  155.0860 N.3     1  UNL1       -0.2725
     19 C         140.7824  136.7983  156.4247 C.3     1  UNL1        0.0939
     20 C         140.0561  138.0745  156.7311 C.3     1  UNL1        0.1122
     21 C         139.3346  139.4274  158.8835 C.3     1  UNL1        0.0950
     22 C         139.9459  138.6672  165.4378 C.ar    1  UNL1        0.0536
     23 C         140.9696  139.5015  166.1491 C.ar    1  UNL1        0.0045
     24 C         140.6288  140.1539  167.4562 C.ar    1  UNL1        0.0001
     25 C         139.2643  139.9718  168.0520 C.ar    1  UNL1        0.0000
     26 C         138.2406  139.1375  167.3407 C.ar    1  UNL1        0.0001
     27 C         138.5813  138.4852  166.0337 C.ar    1  UNL1        0.0045
     28 C         141.8415  134.8976  155.1140 C.3     1  UNL1        0.0576
     29 C         141.4546  133.4493  155.0625 C.3     1  UNL1        0.0160
     30 C         142.9003  133.0599  155.1536 C.3     1  UNL1        0.0028
     31 C         143.2872  134.5081  155.2051 C.3     1  UNL1        0.0160
@<TRIPOS>BOND
     1     1     2    2
     2     2    22    1
     3    22    23   ar
     4    23    24   ar
     5    24    25   ar
     6    25    26   ar
     7    26    27   ar
     8     2     3   am
     9     3     4    1
    10     4     5    1
    11     5     6    1
    12     6     7    1
    13     7     8    1
    14     6     9    1
    15     9    10    1
    16    10    11    1
    17    11    12   am
    18    12    13    2
    19    12    14   am
    20    14    15    1
    21    15    16    1
    22    16    17    1
    23    17    18    1
    24    18    28    1
    25    28    29    1
    26    29    30    1
    27    30    31    1
    28    18    19    1
    29    19    20    1
    30    11    21    1
    31    27    22   ar
    32     8     3    1
    33    20    14    1
    34    21     6    1
    35    31    28    1
@<TRIPOS>MOLECULE
*****
 31 35 0 0 0
SMALL
GASTEIGER

@<TRIPOS>ATOM
      1 O         143.3948  139.5754  165.9690 O.2     1  UNL1       -0.2699
      2 C         142.3945  140.5513  166.5141 C.2     1  UNL1        0.2490
      3 N         141.8043  141.5996  165.6181 N.am    1  UNL1       -0.2761
      4 C         142.2143  141.6720  164.1771 C.3     1  UNL1        0.0938
      5 C         141.6240  142.7203  163.2812 C.3     1  UNL1        0.0233
      6 C         140.6238  143.6961  163.8263 C.3     1  UNL1        0.0233
      7 C         140.2137  143.6237  165.2673 C.3     1  UNL1        0.0233
      8 C         140.8040  142.5755  166.1632 C.3     1  UNL1        0.0938
      9 C         139.6181  144.7343  164.2273 C.3     1  UNL1        0.0233
     10 C         139.3083  145.5701  163.0208 C.3     1  UNL1        0.0950
     11 N         140.1226  145.0485  161.8741 N.am    1  UNL1       -0.2640
     12 C         140.1237  145.5899  160.4753 C.2     1  UNL1        0.3072
     13 O         139.2533  146.7597  160.1232 O.2     1  UNL1       -0.2523
     14 N         140.9952  144.9616  159.4286 N.am    1  UNL1       -0.2626
     15 C         140.9211  145.5792  158.0635 C.3     1  UNL1        0.0964
     16 C         141.6591  145.1864  156.8181 C.3     1  UNL1        0.0389
     17 C         142.6533  144.0792  156.6300 C.3     1  UNL1        0.0739
     18 N         143.1552  143.0912  157.6409 N.3     1  UNL1       -0.2725
     19 C         142.7868  142.9664  159.0896 C.3     1  UNL1        0.0939
     20 C         141.8255  143.7989  159.8852 C.3     1  UNL1        0.1122
     21 C         140.9356  143.8903  162.3719 C.3     1  UNL1        0.0950
     22 C         141.9845  140.4789  167.9551 C.ar    1  UNL1        0.0536
     23 C         140.6082  140.0072  168.3205 C.ar    1  UNL1        0.0045
     24 C         140.1982  139.9348  169.7616 C.ar    1  UNL1        0.0001
     25 C         141.1644  140.3341  170.8372 C.ar    1  UNL1        0.0000
     26 C         142.5406  140.8058  170.4718 C.ar    1  UNL1        0.0001
     27 C         142.9507  140.8782  169.0308 C.ar    1  UNL1        0.0045
     28 C         144.1582  142.0964  157.1364 C.3     1  UNL1        0.0576
     29 C         145.4569  142.1844  156.3911 C.3     1  UNL1        0.0160
     30 C         145.5765  140.6895  156.4230 C.3     1  UNL1        0.0028
     31 C         144.2778  140.6015  157.1683 C.3     1  UNL1        0.0160
@<TRIPOS>BOND
     1     1     2    2
     2     2    22    1
     3    22    23   ar
     4    23    24   ar
     5    24    25   ar
     6    25    26   ar
     7    26    27   ar
     8     2     3   am
     9     3     4    1
    10     4     5    1
    11     5     6    1
    12     6     7    1
    13     7     8    1
    14     6     9    1
    15     9    10    1
    16    10    11    1
    17    11    12   am
    18    12    13    2
    19    12    14   am
    20    14    15    1
    21    15    16    1
    22    16    17    1
    23    17    18    1
    24    18    28    1
    25    28    29    1
    26    29    30    1
    27    30    31    1
    28    18    19    1
    29    19    20    1
    30    11    21    1
    31    27    22   ar
    32     8     3    1
    33    20    14    1
    34    21     6    1
    35    31    28    1
@<TRIPOS>MOLECULE
*****
 31 35 0 0 0
SMALL
GASTEIGER

@<TRIPOS>ATOM
      1 O         141.8552  137.8689  165.1283 O.2     1  UNL1       -0.2699
      2 C         141.5711  139.2830  165.5403 C.2     1  UNL1        0.2490
      3 N         141.6257  140.3855  164.5246 N.am    1  UNL1       -0.2761
      4 C         141.9643  140.0739  163.0969 C.3     1  UNL1        0.0938
      5 C         142.0189  141.1763  162.0813 C.3     1  UNL1        0.0233
      6 C         141.7348  142.5904  162.4933 C.3     1  UNL1        0.0233
      7 C         141.3962  142.9020  163.9210 C.3     1  UNL1        0.0233
      8 C         141.3416  141.7995  164.9366 C.3     1  UNL1        0.0938
      9 C         141.4760  144.0444  162.7556 C.3     1  UNL1        0.0233
     10 C         141.6390  144.7851  161.4614 C.3     1  UNL1        0.0950
     11 N         141.9986  143.7888  160.3992 N.am    1  UNL1       -0.2640
     12 C         142.2540  144.0951  158.9533 C.2     1  UNL1        0.3072
     13 O         142.1576  145.5075  158.4574 O.2     1  UNL1       -0.2523
     14 N         142.6058  142.9890  158.0032 N.am    1  UNL1       -0.2626
     15 C         142.8412  143.4031  156.5807 C.3     1  UNL1        0.0964
     16 C         143.2047  142.5456  155.4049 C.3     1  UNL1        0.0389
     17 C         143.4225  141.0622  155.3611 C.3     1  UNL1        0.0739
     18 N         143.3306  140.0699  156.4822 N.3     1  UNL1       -0.2725
     19 C         142.9983  140.3159  157.9241 C.3     1  UNL1        0.0939
     20 C         142.6757  141.6151  158.6010 C.3     1  UNL1        0.1122
     21 C         142.0577  142.4324  161.0370 C.3     1  UNL1        0.0950
     22 C         141.2325  139.5946  166.9679 C.ar    1  UNL1        0.0536
     23 C         142.3212  139.6744  167.9967 C.ar    1  UNL1        0.0045
     24 C         141.9825  139.9860  169.4244 C.ar    1  UNL1        0.0001
     25 C         140.5552  140.2178  169.8233 C.ar    1  UNL1        0.0000
     26 C         139.4665  140.1379  168.7945 C.ar    1  UNL1        0.0001
     27 C         139.8052  139.8263  167.3668 C.ar    1  UNL1        0.0045
     28 C         143.6078  138.6427  156.1126 C.3     1  UNL1        0.0576
     29 C         144.5155  137.9575  155.1347 C.3     1  UNL1        0.0160
     30 C         143.9996  136.6245  155.5900 C.3     1  UNL1        0.0028
     31 C         143.0919  137.3098  156.5679 C.3     1  UNL1        0.0160
@<TRIPOS>BOND
     1     1     2    2
     2     2    22    1
     3    22    23   ar
     4    23    24   ar
     5    24    25   ar
     6    25    26   ar
     7    26    27   ar
     8     2     3   am
     9     3     4    1
    10     4     5    1
    11     5     6    1
    12     6     7    1
    13     7     8    1
    14     6     9    1
    15     9    10    1
    16    10    11    1
    17    11    12   am
    18    12    13    2
    19    12    14   am
    20    14    15    1
    21    15    16    1
    22    16    17    1
    23    17    18    1
    24    18    28    1
    25    28    29    1
    26    29    30    1
    27    30    31    1
    28    18    19    1
    29    19    20    1
    30    11    21    1
    31    27    22   ar
    32     8     3    1
    33    20    14    1
    34    21     6    1
    35    31    28    1
@<TRIPOS>MOLECULE
*****
 31 35 0 0 0
SMALL
GASTEIGER

@<TRIPOS>ATOM
      1 O         137.9893  142.0142  164.7582 O.2     1  UNL1       -0.2699
      2 C         139.2592  141.2861  165.0857 C.2     1  UNL1        0.2490
      3 N         140.0049  140.5567  164.0078 N.am    1  UNL1       -0.2761
      4 C         139.4807  140.5554  162.6024 C.3     1  UNL1        0.0938
      5 C         140.2264  139.8260  161.5245 C.3     1  UNL1        0.0233
      6 C         141.4963  139.0979  161.8520 C.3     1  UNL1        0.0233
      7 C         142.0205  139.0992  163.2574 C.3     1  UNL1        0.0233
      8 C         141.2748  139.8286  164.3353 C.3     1  UNL1        0.0938
      9 C         142.7727  138.3297  162.0279 C.3     1  UNL1        0.0233
     10 C         143.1618  137.7656  160.6935 C.3     1  UNL1        0.0950
     11 N         142.1259  138.1852  159.6929 N.am    1  UNL1       -0.2640
     12 C         142.1204  137.8418  158.2329 C.2     1  UNL1        0.3072
     13 O         143.2229  137.0048  157.6551 O.2     1  UNL1       -0.2523
     14 N         141.0123  138.3353  157.3505 N.am    1  UNL1       -0.2626
     15 C         141.1021  137.9353  155.9076 C.3     1  UNL1        0.0964
     16 C         140.1627  138.2648  154.7855 C.3     1  UNL1        0.0389
     17 C         138.9015  139.0756  154.8293 C.3     1  UNL1        0.0739
     18 N         138.2682  139.7571  156.0059 N.3     1  UNL1       -0.2725
     19 C         138.7396  139.7962  157.4293 C.3     1  UNL1        0.0939
     20 C         139.9609  139.1634  158.0278 C.3     1  UNL1        0.1122
     21 C         141.0966  139.0086  160.4089 C.3     1  UNL1        0.0950
     22 C         139.7834  141.2875  166.4911 C.ar    1  UNL1        0.0536
     23 C         139.4523  140.1541  167.4162 C.ar    1  UNL1        0.0045
     24 C         139.9766  140.1554  168.8216 C.ar    1  UNL1        0.0001
     25 C         140.8319  141.2902  169.3020 C.ar    1  UNL1        0.0000
     26 C         141.1629  142.4236  168.3769 C.ar    1  UNL1        0.0001
     27 C         140.6387  142.4223  166.9715 C.ar    1  UNL1        0.0045
     28 C         136.9949  140.4975  155.7214 C.3     1  UNL1        0.0576
     29 C         136.4350  141.8333  156.1113 C.3     1  UNL1        0.0160
     30 C         135.1944  141.5444  155.3191 C.3     1  UNL1        0.0028
     31 C         135.7544  140.2086  154.9292 C.3     1  UNL1        0.0160
@<TRIPOS>BOND
     1     1     2    2
     2     2    22    1
     3    22    23   ar
     4    23    24   ar
     5    24    25   ar
     6    25    26   ar
     7    26    27   ar
     8     2     3   am
     9     3     4    1
    10     4     5    1
    11     5     6    1
    12     6     7    1
    13     7     8    1
    14     6     9    1
    15     9    10    1
    16    10    11    1
    17    11    12   am
    18    12    13    2
    19    12    14   am
    20    14    15    1
    21    15    16    1
    22    16    17    1
    23    17    18    1
    24    18    28    1
    25    28    29    1
    26    29    30    1
    27    30    31    1
    28    18    19    1
    29    19    20    1
    30    11    21    1
    31    27    22   ar
    32     8     3    1
    33    20    14    1
    34    21     6    1
    35    31    28    1
@<TRIPOS>MOLECULE
*****
 31 35 0 0 0
SMALL
GASTEIGER

@<TRIPOS>ATOM
      1 O         144.0304  142.2793  165.4258 O.2     1  UNL1       -0.2699
      2 C         142.7497  141.5171  165.5953 C.2     1  UNL1        0.2490
      3 N         142.1080  140.8561  164.4114 N.am    1  UNL1       -0.2761
      4 C         142.7469  140.9575  163.0582 C.3     1  UNL1        0.0938
      5 C         142.1052  140.2966  161.8744 C.3     1  UNL1        0.0233
      6 C         140.8245  139.5343  162.0439 C.3     1  UNL1        0.0233
      7 C         140.1855  139.4329  163.3972 C.3     1  UNL1        0.0233
      8 C         140.8273  140.0939  164.5809 C.3     1  UNL1        0.0938
      9 C         139.5506  138.7424  162.0594 C.3     1  UNL1        0.0233
     10 C         139.2828  138.2679  160.6618 C.3     1  UNL1        0.0950
     11 N         140.3912  138.7665  159.7826 N.am    1  UNL1       -0.2640
     12 C         140.5235  138.5249  158.3082 C.2     1  UNL1        0.3072
     13 O         139.4865  137.7183  157.5843 O.2     1  UNL1       -0.2523
     14 N         141.6928  139.0899  157.5575 N.am    1  UNL1       -0.2626
     15 C         141.7296  138.7897  156.0882 C.3     1  UNL1        0.0964
     16 C         142.7534  139.2059  155.0740 C.3     1  UNL1        0.0389
     17 C         143.9932  140.0249  155.2785 C.3     1  UNL1        0.0739
     18 N         144.5156  140.6301  156.5477 N.3     1  UNL1       -0.2725
     19 C         143.9271  140.5657  157.9259 C.3     1  UNL1        0.0939
     20 C         142.6708  139.8802  158.3754 C.3     1  UNL1        0.1122
     21 C         141.3440  139.5492  160.6367 C.3     1  UNL1        0.0950
     22 C         142.1107  141.4157  166.9486 C.ar    1  UNL1        0.0536
     23 C         142.4808  140.2918  167.8704 C.ar    1  UNL1        0.0045
     24 C         141.8417  140.1905  169.2238 C.ar    1  UNL1        0.0001
     25 C         140.8327  141.2130  169.6552 C.ar    1  UNL1        0.0000
     26 C         140.4626  142.3369  168.7333 C.ar    1  UNL1        0.0001
     27 C         141.1016  142.4383  167.3800 C.ar    1  UNL1        0.0045
     28 C         145.7958  141.4017  156.4221 C.3     1  UNL1        0.0576
     29 C         146.9413  141.4054  155.4538 C.3     1  UNL1        0.0160
     30 C         147.6062  142.4929  156.2446 C.3     1  UNL1        0.0028
     31 C         146.4607  142.4892  157.2129 C.3     1  UNL1        0.0160
@<TRIPOS>BOND
     1     1     2    2
     2     2    22    1
     3    22    23   ar
     4    23    24   ar
     5    24    25   ar
     6    25    26   ar
     7    26    27   ar
     8     2     3   am
     9     3     4    1
    10     4     5    1
    11     5     6    1
    12     6     7    1
    13     7     8    1
    14     6     9    1
    15     9    10    1
    16    10    11    1
    17    11    12   am
    18    12    13    2
    19    12    14   am
    20    14    15    1
    21    15    16    1
    22    16    17    1
    23    17    18    1
    24    18    28    1
    25    28    29    1
    26    29    30    1
    27    30    31    1
    28    18    19    1
    29    19    20    1
    30    11    21    1
    31    27    22   ar
    32     8     3    1
    33    20    14    1
    34    21     6    1
    35    31    28    1
@<TRIPOS>MOLECULE
*****
 31 35 0 0 0
SMALL
GASTEIGER

@<TRIPOS>ATOM
      1 O         138.1886  143.0284  163.8895 O.2     1  UNL1       -0.2699
      2 C         139.1494  141.8991  164.1163 C.2     1  UNL1        0.2490
      3 N         140.1760  141.5670  163.0742 N.am    1  UNL1       -0.2761
      4 C         140.2416  142.3642  161.8053 C.3     1  UNL1        0.0938
      5 C         141.2681  142.0322  160.7633 C.3     1  UNL1        0.0233
      6 C         142.2290  140.9028  160.9901 C.3     1  UNL1        0.0233
      7 C         142.1633  140.1056  162.2589 C.3     1  UNL1        0.0233
      8 C         141.1368  140.4377  163.3010 C.3     1  UNL1        0.0938
      9 C         143.2505  139.8078  161.0761 C.3     1  UNL1        0.0233
     10 C         144.0671  139.8357  159.8181 C.3     1  UNL1        0.0950
     11 N         143.5503  140.9480  158.9546 N.am    1  UNL1       -0.2640
     12 C         144.0769  141.3332  157.6040 C.2     1  UNL1        0.3072
     13 O         145.2249  140.5774  157.0032 O.2     1  UNL1       -0.2523
     14 N         143.4556  142.4741  156.8541 N.am    1  UNL1       -0.2626
     15 C         144.0572  142.7763  155.5136 C.3     1  UNL1        0.0964
     16 C         143.6666  143.8410  154.5319 C.3     1  UNL1        0.0389
     17 C         142.5781  144.8664  154.6481 C.3     1  UNL1        0.0739
     18 N         141.6112  145.0804  155.7747 N.3     1  UNL1       -0.2725
     19 C         141.4941  144.3218  157.0635 C.3     1  UNL1        0.0939
     20 C         142.3150  143.1618  157.5439 C.3     1  UNL1        0.1122
     21 C         142.4143  141.6075  159.6788 C.3     1  UNL1        0.0950
     22 C         139.0837  141.1018  165.3852 C.ar    1  UNL1        0.0536
     23 C         138.1657  139.9195  165.4814 C.ar    1  UNL1        0.0045
     24 C         138.1001  139.1222  166.7504 C.ar    1  UNL1        0.0001
     25 C         138.9524  139.5073  167.9230 C.ar    1  UNL1        0.0000
     26 C         139.8704  140.6897  167.8268 C.ar    1  UNL1        0.0001
     27 C         139.9361  141.4869  166.5579 C.ar    1  UNL1        0.0045
     28 C         140.6319  146.2012  155.5880 C.3     1  UNL1        0.0576
     29 C         140.3188  147.1625  154.4799 C.3     1  UNL1        0.0160
     30 C         139.2470  147.7861  155.3239 C.3     1  UNL1        0.0028
     31 C         139.5600  146.8248  156.4320 C.3     1  UNL1        0.0160
@<TRIPOS>BOND
     1     1     2    2
     2     2    22    1
     3    22    23   ar
     4    23    24   ar
     5    24    25   ar
     6    25    26   ar
     7    26    27   ar
     8     2     3   am
     9     3     4    1
    10     4     5    1
    11     5     6    1
    12     6     7    1
    13     7     8    1
    14     6     9    1
    15     9    10    1
    16    10    11    1
    17    11    12   am
    18    12    13    2
    19    12    14   am
    20    14    15    1
    21    15    16    1
    22    16    17    1
    23    17    18    1
    24    18    28    1
    25    28    29    1
    26    29    30    1
    27    30    31    1
    28    18    19    1
    29    19    20    1
    30    11    21    1
    31    27    22   ar
    32     8     3    1
    33    20    14    1
    34    21     6    1
    35    31    28    1
@<TRIPOS>MOLECULE
*****
 31 35 0 0 0
SMALL
GASTEIGER

@<TRIPOS>ATOM
      1 O         147.6201  143.4111  157.7737 O.2     1  UNL1       -0.2699
      2 C         147.3037  142.5065  156.6197 C.2     1  UNL1        0.2490
      3 N         146.0645  141.6617  156.6468 N.am    1  UNL1       -0.2761
      4 C         145.1417  141.7215  157.8279 C.3     1  UNL1        0.0938
      5 C         143.9025  140.8767  157.8550 C.3     1  UNL1        0.0233
      6 C         143.5861  139.9721  156.7010 C.3     1  UNL1        0.0233
      7 C         144.5089  139.9123  155.5200 C.3     1  UNL1        0.0233
      8 C         145.7480  140.7571  155.4929 C.3     1  UNL1        0.0938
      9 C         143.1409  139.0251  155.6263 C.3     1  UNL1        0.0233
     10 C         141.8541  138.3937  156.0686 C.3     1  UNL1        0.0950
     11 N         141.5041  138.9505  157.4168 N.am    1  UNL1       -0.2640
     12 C         140.2958  138.5944  158.2311 C.2     1  UNL1        0.3072
     13 O         139.3062  137.5962  157.7076 O.2     1  UNL1       -0.2523
     14 N         140.0772  139.2364  159.5690 N.am    1  UNL1       -0.2626
     15 C         138.8390  138.8105  160.3008 C.3     1  UNL1        0.0964
     16 C         138.3435  139.2624  161.6425 C.3     1  UNL1        0.0389
     17 C         138.9637  140.2519  162.5838 C.3     1  UNL1        0.0739
     18 N         140.2327  141.0338  162.4159 N.3     1  UNL1       -0.2725
     19 C         141.1949  141.0194  161.2653 C.3     1  UNL1        0.0939
     20 C         141.1257  140.2195  159.9982 C.3     1  UNL1        0.1122
     21 C         142.5744  139.9260  157.8076 C.3     1  UNL1        0.0950
     22 C         148.2265  142.4467  155.4387 C.ar    1  UNL1        0.0536
     23 C         147.9378  143.2706  154.2189 C.ar    1  UNL1        0.0045
     24 C         148.8607  143.2108  153.0378 C.ar    1  UNL1        0.0001
     25 C         150.0720  142.3270  153.0765 C.ar    1  UNL1        0.0000
     26 C         150.3606  141.5031  154.2963 C.ar    1  UNL1        0.0001
     27 C         149.4379  141.5629  155.4773 C.ar    1  UNL1        0.0045
     28 C         140.5864  141.9516  163.5486 C.3     1  UNL1        0.0576
     29 C         141.6718  141.9901  164.5831 C.3     1  UNL1        0.0160
     30 C         141.0864  143.2495  165.1502 C.3     1  UNL1        0.0028
     31 C         140.0011  143.2109  164.1156 C.3     1  UNL1        0.0160
@<TRIPOS>BOND
     1     1     2    2
     2     2    22    1
     3    22    23   ar
     4    23    24   ar
     5    24    25   ar
     6    25    26   ar
     7    26    27   ar
     8     2     3   am
     9     3     4    1
    10     4     5    1
    11     5     6    1
    12     6     7    1
    13     7     8    1
    14     6     9    1
    15     9    10    1
    16    10    11    1
    17    11    12   am
    18    12    13    2
    19    12    14   am
    20    14    15    1
    21    15    16    1
    22    16    17    1
    23    17    18    1
    24    18    28    1
    25    28    29    1
    26    29    30    1
    27    30    31    1
    28    18    19    1
    29    19    20    1
    30    11    21    1
    31    27    22   ar
    32     8     3    1
    33    20    14    1
    34    21     6    1
    35    31    28    1
