@<TRIPOS>MOLECULE
*****
 33 35 0 0 0
SMALL
GASTEIGER

@<TRIPOS>ATOM
      1 C         143.9628  138.8243  165.8039 C.3     1  UNL1        0.0337
      2 C         142.4745  138.9755  165.6939 C.3     1  UNL1        0.1467
      3 N         142.6112  137.9653  164.5935 N.am    1  UNL1       -0.2806
      4 C         141.2439  137.6968  164.0383 C.2     1  UNL1        0.3106
      5 O         140.9158  136.7503  162.9219 O.2     1  UNL1       -0.2521
      6 N         140.2621  138.5410  164.7956 N.am    1  UNL1       -0.2050
      7 C         141.0227  139.3313  165.8188 C.2     1  UNL1        0.2527
      8 O         140.4346  140.3062  166.7954 O.2     1  UNL1       -0.2723
      9 H         143.4509  137.5512  164.2891 H       1  UNL1        0.1516
     10 C         142.6490  139.9540  166.8173 C.ar    1  UNL1        0.0021
     11 C         142.5764  139.4837  168.2398 C.ar    1  UNL1       -0.0009
     12 C         142.7509  140.4622  169.3631 C.ar    1  UNL1        0.0196
     13 C         142.9980  141.9112  169.0640 C.ar    1  UNL1        0.1217
     14 C         143.0706  142.3816  167.6415 C.ar    1  UNL1        0.0196
     15 C         142.8961  141.4030  166.5182 C.ar    1  UNL1       -0.0009
     16 S         143.1725  142.8898  170.1874 S.O2    1  UNL1        0.0572
     17 N         143.3469  143.8683  171.3108 N.3     1  UNL1       -0.2035
     18 O         144.6494  142.9242  169.9280 O.2     1  UNL1       -0.1532
     19 O         141.6955  142.8553  170.4468 O.2     1  UNL1       -0.1532
     20 H         144.3334  144.1122  171.3991 H       1  UNL1        0.1442
     21 H         143.0213  143.4481  172.1813 H       1  UNL1        0.1442
     22 C         138.7800  138.5868  164.5693 C.3     1  UNL1        0.1715
     23 C         138.2324  139.1785  163.3044 C.2     1  UNL1        0.1964
     24 O         137.8054  138.2818  162.1803 O.2     1  UNL1       -0.2894
     25 C         138.1118  140.6670  163.1635 C.ar    1  UNL1        0.0702
     26 C         137.9973  141.5292  164.3856 C.ar    1  UNL1        0.0082
     27 C         137.8767  143.0177  164.2447 C.ar    1  UNL1        0.0299
     28 C         137.8707  143.6441  162.8818 C.ar    1  UNL1        0.1432
     29 F         137.7501  145.1325  162.7409 F       1  UNL1       -0.2041
     30 C         137.9852  142.7819  161.6597 C.ar    1  UNL1        0.0663
     31 C         138.1058  141.2934  161.8005 C.ar    1  UNL1        0.1386
     32 O         138.2203  140.4312  160.5784 O.3     1  UNL1       -0.5053
     33 H         138.2166  140.8225  159.7270 H       1  UNL1        0.2922
@<TRIPOS>BOND
     1     1     2    1
     2     2    10    1
     3    10    11   ar
     4    11    12   ar
     5    12    13   ar
     6    13    16    1
     7    16    17    1
     8    16    18    2
     9    16    19    2
    10    13    14   ar
    11    14    15   ar
    12     2     3    1
    13     3     4   am
    14     4     5    2
    15     4     6   am
    16     6    22    1
    17    22    23    1
    18    23    24    2
    19    23    25    1
    20    25    26   ar
    21    26    27   ar
    22    27    28   ar
    23    28    29    1
    24    28    30   ar
    25    30    31   ar
    26    31    32    1
    27     6     7   am
    28     7     8    2
    29     7     2    1
    30    15    10   ar
    31    31    25   ar
    32    17    20    1
    33    17    21    1
    34     3     9    1
    35    32    33    1
@<TRIPOS>MOLECULE
*****
 33 35 0 0 0
SMALL
GASTEIGER

@<TRIPOS>ATOM
      1 C         139.2900  138.5079  165.4927 C.3     1  UNL1        0.0337
      2 C         139.1725  140.0032  165.4752 C.3     1  UNL1        0.1467
      3 N         138.2796  139.7619  164.2943 N.am    1  UNL1       -0.2806
      4 C         137.8021  141.0932  163.7947 C.2     1  UNL1        0.3106
      5 O         136.8874  141.3206  162.6279 O.2     1  UNL1       -0.2521
      6 N         138.3998  142.1572  164.6668 N.am    1  UNL1       -0.2050
      7 C         139.2468  141.4835  165.7054 C.2     1  UNL1        0.2527
      8 O         140.0305  142.1697  166.7848 O.2     1  UNL1       -0.2723
      9 H         138.0476  138.8840  163.9140 H       1  UNL1        0.1516
     10 C         140.0900  139.9317  166.6598 C.ar    1  UNL1        0.0021
     11 C         139.5285  140.0049  168.0488 C.ar    1  UNL1       -0.0009
     12 C         140.4460  139.9335  169.2333 C.ar    1  UNL1        0.0196
     13 C         141.9250  139.7889  169.0288 C.ar    1  UNL1        0.1217
     14 C         142.4864  139.7157  167.6398 C.ar    1  UNL1        0.0196
     15 C         141.5689  139.7871  166.4553 C.ar    1  UNL1       -0.0009
     16 S         142.8425  139.7175  170.2134 S.O2    1  UNL1        0.0572
     17 N         143.7599  139.6461  171.3979 N.3     1  UNL1       -0.2035
     18 O         143.0967  138.2668  169.9291 O.2     1  UNL1       -0.1532
     19 O         142.5883  141.1681  170.4977 O.2     1  UNL1       -0.1532
     20 H         144.1309  138.6999  171.4841 H       1  UNL1        0.1442
     21 H         143.2428  139.8869  172.2435 H       1  UNL1        0.1442
     22 C         138.1878  143.6354  164.5251 C.3     1  UNL1        0.1715
     23 C         138.7422  144.3619  163.3356 C.2     1  UNL1        0.1964
     24 O         137.8176  145.0769  162.3954 O.2     1  UNL1       -0.2894
     25 C         140.2213  144.3734  163.0863 C.ar    1  UNL1        0.0702
     26 C         141.1765  144.4136  164.2422 C.ar    1  UNL1        0.0082
     27 C         142.6555  144.4252  163.9928 C.ar    1  UNL1        0.0299
     28 C         143.1796  144.3964  162.5877 C.ar    1  UNL1        0.1432
     29 F         144.6586  144.4079  162.3384 F       1  UNL1       -0.2041
     30 C         142.2244  144.3562  161.4318 C.ar    1  UNL1        0.0663
     31 C         140.7454  144.3447  161.6810 C.ar    1  UNL1        0.1386
     32 O         139.7902  144.3044  160.5251 O.3     1  UNL1       -0.5053
     33 H         140.1175  144.2865  159.6473 H       1  UNL1        0.2922
@<TRIPOS>BOND
     1     1     2    1
     2     2    10    1
     3    10    11   ar
     4    11    12   ar
     5    12    13   ar
     6    13    16    1
     7    16    17    1
     8    16    18    2
     9    16    19    2
    10    13    14   ar
    11    14    15   ar
    12     2     3    1
    13     3     4   am
    14     4     5    2
    15     4     6   am
    16     6    22    1
    17    22    23    1
    18    23    24    2
    19    23    25    1
    20    25    26   ar
    21    26    27   ar
    22    27    28   ar
    23    28    29    1
    24    28    30   ar
    25    30    31   ar
    26    31    32    1
    27     6     7   am
    28     7     8    2
    29     7     2    1
    30    15    10   ar
    31    31    25   ar
    32    17    20    1
    33    17    21    1
    34     3     9    1
    35    32    33    1
@<TRIPOS>MOLECULE
*****
 33 35 0 0 0
SMALL
GASTEIGER

@<TRIPOS>ATOM
      1 C         139.2520  137.5885  164.9982 C.3     1  UNL1        0.0337
      2 C         138.8611  138.9828  164.6071 C.3     1  UNL1        0.1467
      3 N         138.5657  138.3579  163.2759 N.am    1  UNL1       -0.2806
      4 C         138.0711  139.4358  162.3574 C.2     1  UNL1        0.3106
      5 O         137.6592  139.2544  160.9266 O.2     1  UNL1       -0.2521
      6 N         138.0608  140.7268  163.1210 N.am    1  UNL1       -0.2050
      7 C         138.5490  140.4468  164.5114 C.2     1  UNL1        0.2527
      8 O         138.6989  141.4542  165.6128 O.2     1  UNL1       -0.2723
      9 H         138.6770  137.4073  163.0454 H       1  UNL1        0.1516
     10 C         139.2382  139.3162  166.0202 C.ar    1  UNL1        0.0021
     11 C         138.2172  139.2099  167.1139 C.ar    1  UNL1       -0.0009
     12 C         138.5944  139.5432  168.5269 C.ar    1  UNL1        0.0196
     13 C         139.9925  139.9829  168.8462 C.ar    1  UNL1        0.1217
     14 C         141.0135  140.0892  167.7525 C.ar    1  UNL1        0.0196
     15 C         140.6363  139.7558  166.3395 C.ar    1  UNL1       -0.0009
     16 S         140.3696  140.3162  170.2593 S.O2    1  UNL1        0.0572
     17 N         140.7467  140.6496  171.6723 N.3     1  UNL1       -0.2035
     18 O         141.7018  140.8171  169.7856 O.2     1  UNL1       -0.1532
     19 O         139.0374  139.8154  170.7329 O.2     1  UNL1       -0.1532
     20 H         141.6862  141.0462  171.6889 H       1  UNL1        0.1442
     21 H         140.7255  139.8017  172.2389 H       1  UNL1        0.1442
     22 C         137.6367  142.0631  162.5878 C.3     1  UNL1        0.1715
     23 C         138.5807  142.8681  161.7446 C.2     1  UNL1        0.1964
     24 O         138.3195  143.0349  160.2770 O.2     1  UNL1       -0.2894
     25 C         139.7859  143.5063  162.3692 C.ar    1  UNL1        0.0702
     26 C         140.8533  142.6510  162.9849 C.ar    1  UNL1        0.0082
     27 C         142.0585  143.2892  163.6095 C.ar    1  UNL1        0.0299
     28 C         142.1964  144.7828  163.6184 C.ar    1  UNL1        0.1432
     29 F         143.4017  145.4210  164.2430 F       1  UNL1       -0.2041
     30 C         141.1291  145.6381  163.0027 C.ar    1  UNL1        0.0663
     31 C         139.9239  145.0000  162.3781 C.ar    1  UNL1        0.1386
     32 O         138.8566  145.8554  161.7624 O.3     1  UNL1       -0.5053
     33 H         138.9427  146.7884  161.7679 H       1  UNL1        0.2922
@<TRIPOS>BOND
     1     1     2    1
     2     2    10    1
     3    10    11   ar
     4    11    12   ar
     5    12    13   ar
     6    13    16    1
     7    16    17    1
     8    16    18    2
     9    16    19    2
    10    13    14   ar
    11    14    15   ar
    12     2     3    1
    13     3     4   am
    14     4     5    2
    15     4     6   am
    16     6    22    1
    17    22    23    1
    18    23    24    2
    19    23    25    1
    20    25    26   ar
    21    26    27   ar
    22    27    28   ar
    23    28    29    1
    24    28    30   ar
    25    30    31   ar
    26    31    32    1
    27     6     7   am
    28     7     8    2
    29     7     2    1
    30    15    10   ar
    31    31    25   ar
    32    17    20    1
    33    17    21    1
    34     3     9    1
    35    32    33    1
@<TRIPOS>MOLECULE
*****
 33 35 0 0 0
SMALL
GASTEIGER

@<TRIPOS>ATOM
      1 C         138.7303  138.6711  165.9562 C.3     1  UNL1        0.0337
      2 C         138.9626  140.1313  165.7039 C.3     1  UNL1        0.1467
      3 N         137.9456  139.9444  164.6174 N.am    1  UNL1       -0.2806
      4 C         137.7518  141.2643  163.9318 C.2     1  UNL1        0.3106
      5 O         136.8236  141.5342  162.7847 O.2     1  UNL1       -0.2521
      6 N         138.6491  142.2671  164.5945 N.am    1  UNL1       -0.2050
      7 C         139.3974  141.5669  165.6898 C.2     1  UNL1        0.2527
      8 O         140.4039  142.1924  166.6095 O.2     1  UNL1       -0.2723
      9 H         137.4859  139.1030  164.3935 H       1  UNL1        0.1516
     10 C         139.9312  140.0130  166.8432 C.ar    1  UNL1        0.0021
     11 C         139.4571  140.2034  168.2535 C.ar    1  UNL1       -0.0009
     12 C         140.4256  140.0851  169.3927 C.ar    1  UNL1        0.0196
     13 C         141.8682  139.7763  169.1217 C.ar    1  UNL1        0.1217
     14 C         142.3424  139.5859  167.7114 C.ar    1  UNL1        0.0196
     15 C         141.3738  139.7042  166.5722 C.ar    1  UNL1       -0.0009
     16 S         142.8368  139.6580  170.2610 S.O2    1  UNL1        0.0572
     17 N         143.8053  139.5397  171.4003 N.3     1  UNL1       -0.2035
     18 O         143.0712  138.2181  169.9123 O.2     1  UNL1       -0.1532
     19 O         142.6024  141.0979  170.6098 O.2     1  UNL1       -0.1532
     20 H         144.1751  138.5897  171.4349 H       1  UNL1        0.1442
     21 H         143.3272  139.7506  172.2763 H       1  UNL1        0.1442
     22 C         138.7758  143.7157  164.2266 C.3     1  UNL1        0.1715
     23 C         139.5906  144.1179  163.0332 C.2     1  UNL1        0.1964
     24 O         138.9545  144.8921  161.9169 O.2     1  UNL1       -0.2894
     25 C         141.0417  143.7459  162.9560 C.ar    1  UNL1        0.0702
     26 C         141.4388  142.3481  162.5838 C.ar    1  UNL1        0.0082
     27 C         142.8899  141.9760  162.5067 C.ar    1  UNL1        0.0299
     28 C         143.9439  143.0016  162.8016 C.ar    1  UNL1        0.1432
     29 F         145.3949  142.6296  162.7244 F       1  UNL1       -0.2041
     30 C         143.5468  144.3994  163.1737 C.ar    1  UNL1        0.0663
     31 C         142.0958  144.7716  163.2509 C.ar    1  UNL1        0.1386
     32 O         141.6987  146.1694  163.6231 O.3     1  UNL1       -0.5053
     33 H         142.3571  146.8101  163.8073 H       1  UNL1        0.2922
@<TRIPOS>BOND
     1     1     2    1
     2     2    10    1
     3    10    11   ar
     4    11    12   ar
     5    12    13   ar
     6    13    16    1
     7    16    17    1
     8    16    18    2
     9    16    19    2
    10    13    14   ar
    11    14    15   ar
    12     2     3    1
    13     3     4   am
    14     4     5    2
    15     4     6   am
    16     6    22    1
    17    22    23    1
    18    23    24    2
    19    23    25    1
    20    25    26   ar
    21    26    27   ar
    22    27    28   ar
    23    28    29    1
    24    28    30   ar
    25    30    31   ar
    26    31    32    1
    27     6     7   am
    28     7     8    2
    29     7     2    1
    30    15    10   ar
    31    31    25   ar
    32    17    20    1
    33    17    21    1
    34     3     9    1
    35    32    33    1
@<TRIPOS>MOLECULE
*****
 33 35 0 0 0
SMALL
GASTEIGER

@<TRIPOS>ATOM
      1 C         139.7875  139.1657  166.5812 C.3     1  UNL1        0.0337
      2 C         141.0276  139.2945  165.7471 C.3     1  UNL1        0.1467
      3 N         140.3111  138.3588  164.8192 N.am    1  UNL1       -0.2806
      4 C         141.2039  138.0993  163.6422 C.2     1  UNL1        0.3106
      5 O         140.8845  137.2190  162.4705 O.2     1  UNL1       -0.2521
      6 N         142.4723  138.8746  163.8426 N.am    1  UNL1       -0.2050
      7 C         142.3633  139.6133  165.1436 C.2     1  UNL1        0.2527
      8 O         143.4068  140.5129  165.7368 O.2     1  UNL1       -0.2723
      9 H         139.4126  137.9812  164.9583 H       1  UNL1        0.1516
     10 C         141.4848  140.2033  166.8495 C.ar    1  UNL1        0.0021
     11 C         142.2761  139.6505  167.9976 C.ar    1  UNL1       -0.0009
     12 C         142.7333  140.5594  169.0998 C.ar    1  UNL1        0.0196
     13 C         142.3992  142.0210  169.0539 C.ar    1  UNL1        0.1217
     14 C         141.6079  142.5737  167.9058 C.ar    1  UNL1        0.0196
     15 C         141.1507  141.6649  166.8036 C.ar    1  UNL1       -0.0009
     16 S         142.8565  142.9298  170.1563 S.O2    1  UNL1        0.0572
     17 N         143.3137  143.8386  171.2585 N.3     1  UNL1       -0.2035
     18 O         144.2657  142.8332  169.6515 O.2     1  UNL1       -0.1532
     19 O         141.4473  143.0264  170.6610 O.2     1  UNL1       -0.1532
     20 H         144.3207  143.9826  171.1848 H       1  UNL1        0.1442
     21 H         143.0959  143.4152  172.1606 H       1  UNL1        0.1442
     22 C         143.6439  138.9058  162.9065 C.3     1  UNL1        0.1715
     23 C         143.7672  140.0074  161.8959 C.2     1  UNL1        0.1964
     24 O         144.1969  139.6940  160.4933 O.2     1  UNL1       -0.2894
     25 C         143.4609  141.4225  162.2880 C.ar    1  UNL1        0.0702
     26 C         142.0395  141.9005  162.3217 C.ar    1  UNL1        0.0082
     27 C         141.7332  143.3156  162.7137 C.ar    1  UNL1        0.0299
     28 C         142.8482  144.2527  163.0721 C.ar    1  UNL1        0.1432
     29 F         142.5419  145.6678  163.4642 F       1  UNL1       -0.2041
     30 C         144.2696  143.7747  163.0384 C.ar    1  UNL1        0.0663
     31 C         144.5760  142.3597  162.6464 C.ar    1  UNL1        0.1386
     32 O         145.9974  141.8817  162.6127 O.3     1  UNL1       -0.5053
     33 H         146.6940  142.4670  162.8366 H       1  UNL1        0.2922
@<TRIPOS>BOND
     1     1     2    1
     2     2    10    1
     3    10    11   ar
     4    11    12   ar
     5    12    13   ar
     6    13    16    1
     7    16    17    1
     8    16    18    2
     9    16    19    2
    10    13    14   ar
    11    14    15   ar
    12     2     3    1
    13     3     4   am
    14     4     5    2
    15     4     6   am
    16     6    22    1
    17    22    23    1
    18    23    24    2
    19    23    25    1
    20    25    26   ar
    21    26    27   ar
    22    27    28   ar
    23    28    29    1
    24    28    30   ar
    25    30    31   ar
    26    31    32    1
    27     6     7   am
    28     7     8    2
    29     7     2    1
    30    15    10   ar
    31    31    25   ar
    32    17    20    1
    33    17    21    1
    34     3     9    1
    35    32    33    1
@<TRIPOS>MOLECULE
*****
 33 35 0 0 0
SMALL
GASTEIGER

@<TRIPOS>ATOM
      1 C         137.8052  143.1715  164.5370 C.3     1  UNL1        0.0337
      2 C         138.9772  142.6021  163.7938 C.3     1  UNL1        0.1467
      3 N         138.3946  143.3410  162.6256 N.am    1  UNL1       -0.2806
      4 C         139.2771  143.0987  161.4372 C.2     1  UNL1        0.3106
      5 O         139.0684  143.6486  160.0573 O.2     1  UNL1       -0.2521
      6 N         140.4051  142.2101  161.8708 N.am    1  UNL1       -0.2050
      7 C         140.2197  141.9032  163.3273 C.2     1  UNL1        0.2527
      8 O         141.1190  141.0475  164.1695 O.2     1  UNL1       -0.2723
      9 H         137.5767  143.8888  162.6369 H       1  UNL1        0.1516
     10 C         139.3146  141.9822  165.1174 C.ar    1  UNL1        0.0021
     11 C         138.8206  140.6052  165.4485 C.ar    1  UNL1       -0.0009
     12 C         139.1581  139.9854  166.7720 C.ar    1  UNL1        0.0196
     13 C         139.9896  140.7426  167.7646 C.ar    1  UNL1        0.1217
     14 C         140.4837  142.1197  167.4335 C.ar    1  UNL1        0.0196
     15 C         140.1462  142.7395  166.1100 C.ar    1  UNL1       -0.0009
     16 S         140.3271  140.1227  169.0882 S.O2    1  UNL1        0.0572
     17 N         140.6647  139.5029  170.4117 N.3     1  UNL1       -0.2035
     18 O         138.8742  139.8335  169.3233 O.2     1  UNL1       -0.1532
     19 O         141.7801  140.4120  168.8531 O.2     1  UNL1       -0.1532
     20 H         139.8097  139.1770  170.8625 H       1  UNL1        0.1442
     21 H         141.1192  140.1963  171.0059 H       1  UNL1        0.1442
     22 C         141.5223  141.7153  161.0007 C.3     1  UNL1        0.1715
     23 C         142.8463  142.4203  161.0070 C.2     1  UNL1        0.1964
     24 O         143.5672  142.6739  159.7163 O.2     1  UNL1       -0.2894
     25 C         143.4495  142.8716  162.3041 C.ar    1  UNL1        0.0702
     26 C         144.2821  141.9228  163.1144 C.ar    1  UNL1        0.0082
     27 C         144.8852  142.3741  164.4115 C.ar    1  UNL1        0.0299
     28 C         144.6559  143.7741  164.8984 C.ar    1  UNL1        0.1432
     29 F         145.2590  144.2254  166.1955 F       1  UNL1       -0.2041
     30 C         143.8232  144.7229  164.0881 C.ar    1  UNL1        0.0663
     31 C         143.2201  144.2717  162.7911 C.ar    1  UNL1        0.1386
     32 O         142.3875  145.2205  161.9808 O.3     1  UNL1       -0.5053
     33 H         142.2441  146.0951  162.2849 H       1  UNL1        0.2922
@<TRIPOS>BOND
     1     1     2    1
     2     2    10    1
     3    10    11   ar
     4    11    12   ar
     5    12    13   ar
     6    13    16    1
     7    16    17    1
     8    16    18    2
     9    16    19    2
    10    13    14   ar
    11    14    15   ar
    12     2     3    1
    13     3     4   am
    14     4     5    2
    15     4     6   am
    16     6    22    1
    17    22    23    1
    18    23    24    2
    19    23    25    1
    20    25    26   ar
    21    26    27   ar
    22    27    28   ar
    23    28    29    1
    24    28    30   ar
    25    30    31   ar
    26    31    32    1
    27     6     7   am
    28     7     8    2
    29     7     2    1
    30    15    10   ar
    31    31    25   ar
    32    17    20    1
    33    17    21    1
    34     3     9    1
    35    32    33    1
@<TRIPOS>MOLECULE
*****
 33 35 0 0 0
SMALL
GASTEIGER

@<TRIPOS>ATOM
      1 C         143.6912  141.2244  165.0888 C.3     1  UNL1        0.0337
      2 C         142.6296  142.2657  164.8920 C.3     1  UNL1        0.1467
      3 N         143.4048  142.5956  163.6509 N.am    1  UNL1       -0.2806
      4 C         142.7066  143.7263  162.9552 C.2     1  UNL1        0.3106
      5 O         143.1391  144.3742  161.6734 O.2     1  UNL1       -0.2521
      6 N         141.5000  144.0953  163.7663 N.am    1  UNL1       -0.2050
      7 C         141.4525  143.1926  164.9633 C.2     1  UNL1        0.2527
      8 O         140.4106  143.2133  166.0423 O.2     1  UNL1       -0.2723
      9 H         144.2273  142.1484  163.3464 H       1  UNL1        0.1516
     10 C         142.0764  141.7182  166.1743 C.ar    1  UNL1        0.0021
     11 C         142.5646  142.2497  167.4892 C.ar    1  UNL1       -0.0009
     12 C         142.0115  141.7021  168.7714 C.ar    1  UNL1        0.0196
     13 C         140.9701  140.6230  168.7387 C.ar    1  UNL1        0.1217
     14 C         140.4818  140.0915  167.4238 C.ar    1  UNL1        0.0196
     15 C         141.0350  140.6391  166.1416 C.ar    1  UNL1       -0.0009
     16 S         140.4169  140.0755  170.0210 S.O2    1  UNL1        0.0572
     17 N         139.8637  139.5279  171.3032 N.3     1  UNL1       -0.2035
     18 O         141.7196  140.3638  170.7062 O.2     1  UNL1       -0.1532
     19 O         139.1141  139.7871  169.3358 O.2     1  UNL1       -0.1532
     20 H         140.5735  139.5887  172.0332 H       1  UNL1        0.1442
     21 H         139.5964  138.5527  171.1692 H       1  UNL1        0.1442
     22 C         140.5141  145.1771  163.4380 C.3     1  UNL1        0.1715
     23 C         139.4036  144.9098  162.4656 C.2     1  UNL1        0.1964
     24 O         138.8260  146.0348  161.6589 O.2     1  UNL1       -0.2894
     25 C         138.8708  143.5175  162.3000 C.ar    1  UNL1        0.0702
     26 C         139.1867  142.7362  161.0591 C.ar    1  UNL1        0.0082
     27 C         138.6538  141.3438  160.8934 C.ar    1  UNL1        0.0299
     28 C         137.8051  140.7327  161.9686 C.ar    1  UNL1        0.1432
     29 F         137.2722  139.3404  161.8030 F       1  UNL1       -0.2041
     30 C         137.4892  141.5140  163.2095 C.ar    1  UNL1        0.0663
     31 C         138.0220  142.9063  163.3752 C.ar    1  UNL1        0.1386
     32 O         137.7061  143.6875  164.6161 O.3     1  UNL1       -0.5053
     33 H         137.1759  143.3058  165.2878 H       1  UNL1        0.2922
@<TRIPOS>BOND
     1     1     2    1
     2     2    10    1
     3    10    11   ar
     4    11    12   ar
     5    12    13   ar
     6    13    16    1
     7    16    17    1
     8    16    18    2
     9    16    19    2
    10    13    14   ar
    11    14    15   ar
    12     2     3    1
    13     3     4   am
    14     4     5    2
    15     4     6   am
    16     6    22    1
    17    22    23    1
    18    23    24    2
    19    23    25    1
    20    25    26   ar
    21    26    27   ar
    22    27    28   ar
    23    28    29    1
    24    28    30   ar
    25    30    31   ar
    26    31    32    1
    27     6     7   am
    28     7     8    2
    29     7     2    1
    30    15    10   ar
    31    31    25   ar
    32    17    20    1
    33    17    21    1
    34     3     9    1
    35    32    33    1
@<TRIPOS>MOLECULE
*****
 33 35 0 0 0
SMALL
GASTEIGER

@<TRIPOS>ATOM
      1 C         143.4749  141.3409  165.1188 C.3     1  UNL1        0.0337
      2 C         142.3270  140.4504  164.7455 C.3     1  UNL1        0.1467
      3 N         142.8771  140.5876  163.3568 N.am    1  UNL1       -0.2806
      4 C         142.0044  139.7921  162.4319 C.2     1  UNL1        0.3106
      5 O         142.1887  139.6503  160.9500 O.2     1  UNL1       -0.2521
      6 N         140.9149  139.1633  163.2489 N.am    1  UNL1       -0.2050
      7 C         141.1143  139.5702  164.6789 C.2     1  UNL1        0.2527
      8 O         140.2523  139.1675  165.8385 O.2     1  UNL1       -0.2723
      9 H         143.6715  141.1083  163.0978 H       1  UNL1        0.1516
     10 C         142.0169  140.4995  166.2123 C.ar    1  UNL1        0.0021
     11 C         141.0579  141.5238  166.7423 C.ar    1  UNL1       -0.0009
     12 C         140.7479  141.5728  168.2091 C.ar    1  UNL1        0.0196
     13 C         141.3968  140.5974  169.1458 C.ar    1  UNL1        0.1217
     14 C         142.3558  139.5731  168.6158 C.ar    1  UNL1        0.0196
     15 C         142.6659  139.5241  167.1491 C.ar    1  UNL1       -0.0009
     16 S         141.0867  140.6465  170.6127 S.O2    1  UNL1        0.0572
     17 N         140.7767  140.6956  172.0794 N.3     1  UNL1       -0.2035
     18 O         140.2186  139.4316  170.4698 O.2     1  UNL1       -0.1532
     19 O         141.9549  141.8613  170.7555 O.2     1  UNL1       -0.1532
     20 H         140.1498  139.9278  172.3203 H       1  UNL1        0.1442
     21 H         140.3277  141.5838  172.3025 H       1  UNL1        0.1442
     22 C         139.8185  138.2824  162.7276 C.3     1  UNL1        0.1715
     23 C         138.5146  138.8845  162.2944 C.2     1  UNL1        0.1964
     24 O         137.4409  138.0116  161.7156 O.2     1  UNL1       -0.2894
     25 C         138.2846  140.3595  162.4401 C.ar    1  UNL1        0.0702
     26 C         138.4758  141.2684  161.2622 C.ar    1  UNL1        0.0082
     27 C         138.2457  142.7434  161.4079 C.ar    1  UNL1        0.0299
     28 C         137.8246  143.3098  162.7315 C.ar    1  UNL1        0.1432
     29 F         137.5946  144.7848  162.8772 F       1  UNL1       -0.2041
     30 C         137.6335  142.4009  163.9094 C.ar    1  UNL1        0.0663
     31 C         137.8635  140.9259  163.7638 C.ar    1  UNL1        0.1386
     32 O         137.6724  140.0171  164.9417 O.3     1  UNL1       -0.5053
     33 H         137.4093  140.3708  165.7685 H       1  UNL1        0.2922
@<TRIPOS>BOND
     1     1     2    1
     2     2    10    1
     3    10    11   ar
     4    11    12   ar
     5    12    13   ar
     6    13    16    1
     7    16    17    1
     8    16    18    2
     9    16    19    2
    10    13    14   ar
    11    14    15   ar
    12     2     3    1
    13     3     4   am
    14     4     5    2
    15     4     6   am
    16     6    22    1
    17    22    23    1
    18    23    24    2
    19    23    25    1
    20    25    26   ar
    21    26    27   ar
    22    27    28   ar
    23    28    29    1
    24    28    30   ar
    25    30    31   ar
    26    31    32    1
    27     6     7   am
    28     7     8    2
    29     7     2    1
    30    15    10   ar
    31    31    25   ar
    32    17    20    1
    33    17    21    1
    34     3     9    1
    35    32    33    1
@<TRIPOS>MOLECULE
*****
 33 35 0 0 0
SMALL
GASTEIGER

@<TRIPOS>ATOM
      1 C         138.2559  141.1354  164.7628 C.3     1  UNL1        0.0337
      2 C         139.4962  140.3041  164.6193 C.3     1  UNL1        0.1467
      3 N         139.0145  140.1113  163.2119 N.am    1  UNL1       -0.2806
      4 C         140.0036  139.2375  162.4991 C.2     1  UNL1        0.3106
      5 O         139.9153  138.7896  161.0703 O.2     1  UNL1       -0.2521
      6 N         141.0966  138.8903  163.4659 N.am    1  UNL1       -0.2050
      7 C         140.7830  139.5495  164.7763 C.2     1  UNL1        0.2527
      8 O         141.6109  139.4683  166.0246 O.2     1  UNL1       -0.2723
      9 H         138.1934  140.4915  162.8241 H       1  UNL1        0.1516
     10 C         139.7186  140.6708  166.0568 C.ar    1  UNL1        0.0021
     11 C         140.4082  141.9566  166.4048 C.ar    1  UNL1       -0.0009
     12 C         140.6305  142.3232  167.8422 C.ar    1  UNL1        0.0196
     13 C         140.1633  141.4039  168.9315 C.ar    1  UNL1        0.1217
     14 C         139.4737  140.1181  168.5835 C.ar    1  UNL1        0.0196
     15 C         139.2514  139.7516  167.1461 C.ar    1  UNL1       -0.0009
     16 S         140.3857  141.7706  170.3690 S.O2    1  UNL1        0.0572
     17 N         140.6080  142.1372  171.8064 N.3     1  UNL1       -0.2035
     18 O         141.8618  141.8592  170.1181 O.2     1  UNL1       -0.1532
     19 O         138.9095  141.6820  170.6199 O.2     1  UNL1       -0.1532
     20 H         141.6048  142.2771  171.9713 H       1  UNL1        0.1442
     21 H         140.2663  141.3858  172.4057 H       1  UNL1        0.1442
     22 C         142.2931  138.0341  163.1737 C.3     1  UNL1        0.1715
     23 C         143.3760  138.5424  162.2686 C.2     1  UNL1        0.1964
     24 O         144.0858  137.5981  161.3444 O.2     1  UNL1       -0.2894
     25 C         143.7489  139.9952  162.2878 C.ar    1  UNL1        0.0702
     26 C         143.0792  140.9539  161.3485 C.ar    1  UNL1        0.0082
     27 C         143.4522  142.4067  161.3677 C.ar    1  UNL1        0.0299
     28 C         144.4948  142.9008  162.3262 C.ar    1  UNL1        0.1432
     29 F         144.8677  144.3535  162.3454 F       1  UNL1       -0.2041
     30 C         145.1644  141.9421  163.2655 C.ar    1  UNL1        0.0663
     31 C         144.7916  140.4893  163.2464 C.ar    1  UNL1        0.1386
     32 O         145.4612  139.5306  164.1857 O.3     1  UNL1       -0.5053
     33 H         146.1125  139.8392  164.7845 H       1  UNL1        0.2922
@<TRIPOS>BOND
     1     1     2    1
     2     2    10    1
     3    10    11   ar
     4    11    12   ar
     5    12    13   ar
     6    13    16    1
     7    16    17    1
     8    16    18    2
     9    16    19    2
    10    13    14   ar
    11    14    15   ar
    12     2     3    1
    13     3     4   am
    14     4     5    2
    15     4     6   am
    16     6    22    1
    17    22    23    1
    18    23    24    2
    19    23    25    1
    20    25    26   ar
    21    26    27   ar
    22    27    28   ar
    23    28    29    1
    24    28    30   ar
    25    30    31   ar
    26    31    32    1
    27     6     7   am
    28     7     8    2
    29     7     2    1
    30    15    10   ar
    31    31    25   ar
    32    17    20    1
    33    17    21    1
    34     3     9    1
    35    32    33    1
