@<TRIPOS>MOLECULE
*****
 17 19 0 0 0
SMALL
GASTEIGER

@<TRIPOS>ATOM
      1 N         138.6013  139.2145  165.6590 N.3     1  UNL1       -0.2648
      2 C         138.9420  137.8804  165.0641 C.3     1  UNL1        0.0779
      3 C         138.8467  137.6739  163.5814 C.3     1  UNL1        0.0500
      4 C         138.4106  138.8016  162.6937 C.ar    1  UNL1        0.0060
      5 S         138.2241  138.8951  161.2083 S.2     1  UNL1       -0.0910
      6 C         137.7681  140.2871  160.8852 C.ar    1  UNL1        0.0348
      7 C         137.6728  141.0539  162.1708 C.ar    1  UNL1        0.0042
      8 C         138.0699  140.1358  163.2886 C.ar    1  UNL1       -0.0036
      9 C         138.1653  140.3422  164.7712 C.3     1  UNL1        0.0996
     10 C         138.6967  139.4210  167.1417 C.3     1  UNL1        0.1002
     11 CL        138.7725  140.3555  169.9914 Cl      1  UNL1       -0.0825
     12 C         140.0351  140.3115  169.1826 C.ar    1  UNL1        0.0550
     13 C         141.3356  140.7348  169.7988 C.ar    1  UNL1        0.0111
     14 C         142.5981  140.6909  168.9901 C.ar    1  UNL1        0.0008
     15 C         142.5602  140.2236  167.5652 C.ar    1  UNL1       -0.0002
     16 C         141.2598  139.8004  166.9491 C.ar    1  UNL1       -0.0021
     17 C         139.9971  139.8443  167.7578 C.ar    1  UNL1        0.0045
@<TRIPOS>BOND
     1    11    12    1
     2    12    13   ar
     3    13    14   ar
     4    14    15   ar
     5    15    16   ar
     6    16    17   ar
     7    17    10    1
     8    10     1    1
     9     1     2    1
    10     2     3    1
    11     3     4    1
    12     4     5   ar
    13     5     6   ar
    14     6     7   ar
    15     7     8   ar
    16     8     9    1
    17    17    12   ar
    18     9     1    1
    19     8     4   ar
@<TRIPOS>MOLECULE
*****
 17 19 0 0 0
SMALL
GASTEIGER

@<TRIPOS>ATOM
      1 N         140.8922  141.1763  166.0386 N.3     1  UNL1       -0.2648
      2 C         140.3010  139.9278  166.6231 C.3     1  UNL1        0.0779
      3 C         139.8168  139.9206  168.0428 C.3     1  UNL1        0.0500
      4 C         139.9239  141.1620  168.8780 C.ar    1  UNL1        0.0060
      5 S         139.5341  141.4538  170.2967 S.2     1  UNL1       -0.0910
      6 C         139.8845  142.8827  170.5891 C.ar    1  UNL1        0.0348
      7 C         140.4907  143.4740  169.3510 C.ar    1  UNL1        0.0042
      8 C         140.5151  142.4105  168.2935 C.ar    1  UNL1       -0.0036
      9 C         140.9992  142.4176  166.8738 C.3     1  UNL1        0.0996
     10 C         141.3764  141.1835  164.6189 C.3     1  UNL1        0.1002
     11 CL        143.0743  138.7107  164.6630 Cl      1  UNL1       -0.0825
     12 C         143.6938  140.0404  164.3499 C.ar    1  UNL1        0.0550
     13 C         145.1624  140.1336  164.0589 C.ar    1  UNL1        0.0111
     14 C         145.7820  141.4632  163.7457 C.ar    1  UNL1        0.0008
     15 C         144.9331  142.6997  163.7236 C.ar    1  UNL1       -0.0002
     16 C         143.4645  142.6065  164.0147 C.ar    1  UNL1       -0.0021
     17 C         142.8449  141.2768  164.3278 C.ar    1  UNL1        0.0045
@<TRIPOS>BOND
     1    11    12    1
     2    12    13   ar
     3    13    14   ar
     4    14    15   ar
     5    15    16   ar
     6    16    17   ar
     7    17    10    1
     8    10     1    1
     9     1     2    1
    10     2     3    1
    11     3     4    1
    12     4     5   ar
    13     5     6   ar
    14     6     7   ar
    15     7     8   ar
    16     8     9    1
    17    17    12   ar
    18     9     1    1
    19     8     4   ar
@<TRIPOS>MOLECULE
*****
 17 19 0 0 0
SMALL
GASTEIGER

@<TRIPOS>ATOM
      1 N         139.8542  140.7744  166.3181 N.3     1  UNL1       -0.2648
      2 C         139.0130  139.9246  165.4126 C.3     1  UNL1        0.0779
      3 C         138.2355  140.5587  164.2974 C.3     1  UNL1        0.0500
      4 C         138.2993  142.0426  164.0880 C.ar    1  UNL1        0.0060
      5 S         137.6474  142.9430  163.0808 S.2     1  UNL1       -0.0910
      6 C         138.0858  144.3492  163.3640 C.ar    1  UNL1        0.0348
      7 C         139.0086  144.3180  164.5461 C.ar    1  UNL1        0.0042
      8 C         139.1405  142.8924  164.9936 C.ar    1  UNL1       -0.0036
      9 C         139.9180  142.2583  166.1087 C.3     1  UNL1        0.0996
     10 C         140.6318  140.1403  167.4333 C.3     1  UNL1        0.1002
     11 CL        139.1758  140.9418  169.9308 Cl      1  UNL1       -0.0825
     12 C         140.5857  141.4011  169.7044 C.ar    1  UNL1        0.0550
     13 C         141.2676  142.2613  170.7268 C.ar    1  UNL1        0.0111
     14 C         142.6774  142.7206  170.5004 C.ar    1  UNL1        0.0008
     15 C         143.4055  142.3198  169.2516 C.ar    1  UNL1       -0.0002
     16 C         142.7236  141.4597  168.2293 C.ar    1  UNL1       -0.0021
     17 C         141.3137  141.0004  168.4556 C.ar    1  UNL1        0.0045
@<TRIPOS>BOND
     1    11    12    1
     2    12    13   ar
     3    13    14   ar
     4    14    15   ar
     5    15    16   ar
     6    16    17   ar
     7    17    10    1
     8    10     1    1
     9     1     2    1
    10     2     3    1
    11     3     4    1
    12     4     5   ar
    13     5     6   ar
    14     6     7   ar
    15     7     8   ar
    16     8     9    1
    17    17    12   ar
    18     9     1    1
    19     8     4   ar
@<TRIPOS>MOLECULE
*****
 17 19 0 0 0
SMALL
GASTEIGER

@<TRIPOS>ATOM
      1 N         139.6716  139.4985  166.5893 N.3     1  UNL1       -0.2648
      2 C         141.1148  139.4362  166.1856 C.3     1  UNL1        0.0779
      3 C         142.1884  139.7284  167.1917 C.3     1  UNL1        0.0500
      4 C         141.8185  140.0829  168.6015 C.ar    1  UNL1        0.0060
      5 S         142.6509  140.4187  169.8033 S.2     1  UNL1       -0.0910
      6 C         141.7221  140.6886  170.9498 C.ar    1  UNL1        0.0348
      7 C         140.3156  140.5195  170.4565 C.ar    1  UNL1        0.0042
      8 C         140.3752  140.1452  169.0052 C.ar    1  UNL1       -0.0036
      9 C         139.3017  139.8530  167.9991 C.3     1  UNL1        0.0996
     10 C         138.5980  139.2063  165.5832 C.3     1  UNL1        0.1002
     11 CL        138.3373  138.2648  162.7468 Cl      1  UNL1       -0.0825
     12 C         138.1765  139.7203  163.0716 C.ar    1  UNL1        0.0550
     13 C         137.8852  140.7051  161.9782 C.ar    1  UNL1        0.0111
     14 C         137.7244  142.1606  162.3030 C.ar    1  UNL1        0.0008
     15 C         137.8547  142.6314  163.7213 C.ar    1  UNL1       -0.0002
     16 C         138.1459  141.6467  164.8146 C.ar    1  UNL1       -0.0021
     17 C         138.3068  140.1911  164.4899 C.ar    1  UNL1        0.0045
@<TRIPOS>BOND
     1    11    12    1
     2    12    13   ar
     3    13    14   ar
     4    14    15   ar
     5    15    16   ar
     6    16    17   ar
     7    17    10    1
     8    10     1    1
     9     1     2    1
    10     2     3    1
    11     3     4    1
    12     4     5   ar
    13     5     6   ar
    14     6     7   ar
    15     7     8   ar
    16     8     9    1
    17    17    12   ar
    18     9     1    1
    19     8     4   ar
@<TRIPOS>MOLECULE
*****
 17 19 0 0 0
SMALL
GASTEIGER

@<TRIPOS>ATOM
      1 N         140.2203  141.6433  166.2582 N.3     1  UNL1       -0.2648
      2 C         139.5706  140.3411  166.6212 C.3     1  UNL1        0.0779
      3 C         139.4988  139.9132  168.0572 C.3     1  UNL1        0.0500
      4 C         140.0769  140.7878  169.1300 C.ar    1  UNL1        0.0060
      5 S         140.1541  140.6307  170.6197 S.2     1  UNL1       -0.0910
      6 C         140.8516  141.8359  171.1774 C.ar    1  UNL1        0.0348
      7 C         141.2054  142.7379  170.0323 C.ar    1  UNL1        0.0042
      8 C         140.7266  142.0901  168.7669 C.ar    1  UNL1       -0.0036
      9 C         140.7983  142.5179  167.3310 C.3     1  UNL1        0.0996
     10 C         140.2920  142.0711  164.8222 C.3     1  UNL1        0.1002
     11 CL        139.5198  144.9297  164.3402 Cl      1  UNL1       -0.0825
     12 C         140.9418  144.4939  164.1455 C.ar    1  UNL1        0.0550
     13 C         141.9778  145.4874  163.7099 C.ar    1  UNL1        0.0111
     14 C         143.3998  145.0517  163.5152 C.ar    1  UNL1        0.0008
     15 C         143.7860  143.6223  163.7562 C.ar    1  UNL1       -0.0002
     16 C         142.7500  142.6289  164.1919 C.ar    1  UNL1       -0.0021
     17 C         141.3279  143.0646  164.3866 C.ar    1  UNL1        0.0045
@<TRIPOS>BOND
     1    11    12    1
     2    12    13   ar
     3    13    14   ar
     4    14    15   ar
     5    15    16   ar
     6    16    17   ar
     7    17    10    1
     8    10     1    1
     9     1     2    1
    10     2     3    1
    11     3     4    1
    12     4     5   ar
    13     5     6   ar
    14     6     7   ar
    15     7     8   ar
    16     8     9    1
    17    17    12   ar
    18     9     1    1
    19     8     4   ar
@<TRIPOS>MOLECULE
*****
 17 19 0 0 0
SMALL
GASTEIGER

@<TRIPOS>ATOM
      1 N         139.0679  140.6248  165.8179 N.3     1  UNL1       -0.2648
      2 C         138.1223  140.2612  164.7118 C.3     1  UNL1        0.0779
      3 C         137.7537  141.2804  163.6748 C.3     1  UNL1        0.0500
      4 C         138.3307  142.6632  163.7440 C.ar    1  UNL1        0.0060
      5 S         138.1530  143.8698  162.8707 S.2     1  UNL1       -0.0910
      6 C         138.9887  144.9791  163.4372 C.ar    1  UNL1        0.0348
      7 C         139.6830  144.4582  164.6606 C.ar    1  UNL1        0.0042
      8 C         139.2763  143.0268  164.8502 C.ar    1  UNL1       -0.0036
      9 C         139.6449  142.0076  165.8871 C.3     1  UNL1        0.0996
     10 C         139.4365  139.6056  166.8550 C.3     1  UNL1        0.1002
     11 CL        142.4270  139.3682  166.8408 Cl      1  UNL1       -0.0825
     12 C         141.7224  139.8971  168.0547 C.ar    1  UNL1        0.0550
     13 C         142.5131  140.3074  169.2617 C.ar    1  UNL1        0.0111
     14 C         141.8085  140.8363  170.4756 C.ar    1  UNL1        0.0008
     15 C         140.3132  140.9550  170.4828 C.ar    1  UNL1       -0.0002
     16 C         139.5226  140.5448  169.2759 C.ar    1  UNL1       -0.0021
     17 C         140.2271  140.0158  168.0619 C.ar    1  UNL1        0.0045
@<TRIPOS>BOND
     1    11    12    1
     2    12    13   ar
     3    13    14   ar
     4    14    15   ar
     5    15    16   ar
     6    16    17   ar
     7    17    10    1
     8    10     1    1
     9     1     2    1
    10     2     3    1
    11     3     4    1
    12     4     5   ar
    13     5     6   ar
    14     6     7   ar
    15     7     8   ar
    16     8     9    1
    17    17    12   ar
    18     9     1    1
    19     8     4   ar
@<TRIPOS>MOLECULE
*****
 17 19 0 0 0
SMALL
GASTEIGER

@<TRIPOS>ATOM
      1 N         140.8568  141.1419  165.9752 N.3     1  UNL1       -0.2648
      2 C         140.2193  139.9069  166.5392 C.3     1  UNL1        0.0779
      3 C         139.7324  139.8952  167.9580 C.3     1  UNL1        0.0500
      4 C         139.8830  141.1187  168.8126 C.ar    1  UNL1        0.0060
      5 S         139.5013  141.4024  170.2352 S.2     1  UNL1       -0.0910
      6 C         139.9030  142.8128  170.5504 C.ar    1  UNL1        0.0348
      7 C         140.5329  143.4008  169.3226 C.ar    1  UNL1        0.0042
      8 C         140.5205  142.3537  168.2486 C.ar    1  UNL1       -0.0036
      9 C         141.0074  142.3654  166.8299 C.3     1  UNL1        0.0996
     10 C         141.3438  141.1536  164.5564 C.3     1  UNL1        0.1002
     11 CL        142.5204  143.8140  163.8231 Cl      1  UNL1       -0.0825
     12 C         143.3994  142.6011  163.9015 C.ar    1  UNL1        0.0550
     13 C         144.8669  142.7184  163.6131 C.ar    1  UNL1        0.0111
     14 C         145.7459  141.5055  163.6915 C.ar    1  UNL1        0.0008
     15 C         145.1576  140.1752  164.0582 C.ar    1  UNL1       -0.0002
     16 C         143.6902  140.0580  164.3465 C.ar    1  UNL1       -0.0021
     17 C         142.8111  141.2709  164.2681 C.ar    1  UNL1        0.0045
@<TRIPOS>BOND
     1    11    12    1
     2    12    13   ar
     3    13    14   ar
     4    14    15   ar
     5    15    16   ar
     6    16    17   ar
     7    17    10    1
     8    10     1    1
     9     1     2    1
    10     2     3    1
    11     3     4    1
    12     4     5   ar
    13     5     6   ar
    14     6     7   ar
    15     7     8   ar
    16     8     9    1
    17    17    12   ar
    18     9     1    1
    19     8     4   ar
@<TRIPOS>MOLECULE
*****
 17 19 0 0 0
SMALL
GASTEIGER

@<TRIPOS>ATOM
      1 N         139.2055  140.3042  166.6787 N.3     1  UNL1       -0.2648
      2 C         139.7939  141.5955  166.1927 C.3     1  UNL1        0.0779
      3 C         140.4917  142.5109  167.1546 C.3     1  UNL1        0.0500
      4 C         140.6010  142.1349  168.6026 C.ar    1  UNL1        0.0060
      5 S         141.2259  142.8302  169.7756 S.2     1  UNL1       -0.0910
      6 C         141.0238  141.9685  170.9867 C.ar    1  UNL1        0.0348
      7 C         140.2739  140.7408  170.5621 C.ar    1  UNL1        0.0042
      8 C         140.0126  140.8436  169.0886 C.ar    1  UNL1       -0.0036
      9 C         139.3148  139.9283  168.1267 C.3     1  UNL1        0.0996
     10 C         138.5078  139.3888  165.7168 C.3     1  UNL1        0.1002
     11 CL        137.7860  140.0555  162.8823 Cl      1  UNL1       -0.0825
     12 C         138.9096  139.1031  163.1660 C.ar    1  UNL1        0.0550
     13 C         139.6724  138.4840  162.0323 C.ar    1  UNL1        0.0111
     14 C         140.7959  137.5316  162.3160 C.ar    1  UNL1        0.0008
     15 C         141.1568  137.1982  163.7333 C.ar    1  UNL1       -0.0002
     16 C         140.3941  137.8173  164.8668 C.ar    1  UNL1       -0.0021
     17 C         139.2705  138.7697  164.5832 C.ar    1  UNL1        0.0045
@<TRIPOS>BOND
     1    11    12    1
     2    12    13   ar
     3    13    14   ar
     4    14    15   ar
     5    15    16   ar
     6    16    17   ar
     7    17    10    1
     8    10     1    1
     9     1     2    1
    10     2     3    1
    11     3     4    1
    12     4     5   ar
    13     5     6   ar
    14     6     7   ar
    15     7     8   ar
    16     8     9    1
    17    17    12   ar
    18     9     1    1
    19     8     4   ar
@<TRIPOS>MOLECULE
*****
 17 19 0 0 0
SMALL
GASTEIGER

@<TRIPOS>ATOM
      1 N         139.5100  140.1653  166.6257 N.3     1  UNL1       -0.2648
      2 C         139.5644  141.4421  165.8406 C.3     1  UNL1        0.0779
      3 C         139.4003  141.4135  164.3498 C.3     1  UNL1        0.0500
      4 C         139.1818  140.1080  163.6443 C.ar    1  UNL1        0.0060
      5 S         138.9886  139.7700  162.1957 S.2     1  UNL1       -0.0910
      6 C         138.8147  138.2842  162.0857 C.ar    1  UNL1        0.0348
      7 C         138.9006  137.7039  163.4662 C.ar    1  UNL1        0.0042
      8 C         139.1274  138.8311  164.4295 C.ar    1  UNL1       -0.0036
      9 C         139.2915  138.8597  165.9202 C.3     1  UNL1        0.0996
     10 C         139.6741  140.1939  168.1165 C.3     1  UNL1        0.1002
     11 CL        142.5464  139.3380  168.2478 Cl      1  UNL1       -0.0825
     12 C         142.1336  140.6673  168.8068 C.ar    1  UNL1        0.0550
     13 C         143.1570  141.5688  169.4315 C.ar    1  UNL1        0.0111
     14 C         142.7443  142.8980  169.9905 C.ar    1  UNL1        0.0008
     15 C         141.3081  143.3261  169.9249 C.ar    1  UNL1       -0.0002
     16 C         140.2847  142.4247  169.3002 C.ar    1  UNL1       -0.0021
     17 C         140.6974  141.0953  168.7412 C.ar    1  UNL1        0.0045
@<TRIPOS>BOND
     1    11    12    1
     2    12    13   ar
     3    13    14   ar
     4    14    15   ar
     5    15    16   ar
     6    16    17   ar
     7    17    10    1
     8    10     1    1
     9     1     2    1
    10     2     3    1
    11     3     4    1
    12     4     5   ar
    13     5     6   ar
    14     6     7   ar
    15     7     8   ar
    16     8     9    1
    17    17    12   ar
    18     9     1    1
    19     8     4   ar
