@<TRIPOS>MOLECULE
*****
 31 34 0 0 0
SMALL
GASTEIGER

@<TRIPOS>ATOM
      1 N         143.5568  141.1549  160.2607 N.am    1  UNL1       -0.2756
      2 C         142.8676  142.3665  160.8149 C.3     1  UNL1        0.1151
      3 C         143.7375  139.9371  161.1176 C.2     1  UNL1        0.2490
      4 O         144.4266  138.7256  160.5633 O.2     1  UNL1       -0.2699
      5 C         146.8050  141.9848  154.2598 C.ar    1  UNL1       -0.0065
      6 C         147.5111  142.7835  155.3149 C.ar    1  UNL1       -0.0033
      7 C         147.0027  142.7773  156.7261 C.ar    1  UNL1       -0.0048
      8 C         145.7882  141.9723  157.0822 C.ar    1  UNL1       -0.0245
      9 C         145.0820  141.1736  156.0271 C.ar    1  UNL1       -0.0263
     10 C         145.5904  141.1798  154.6159 C.ar    1  UNL1       -0.0075
     11 C         143.8674  140.3686  156.3831 C.3     1  UNL1        0.0277
     12 C         143.3590  140.3623  157.7943 C.3     1  UNL1        0.0248
     13 C         144.0652  141.1611  158.8495 C.3     1  UNL1        0.0804
     14 C         145.2798  141.9661  158.4934 C.3     1  UNL1        0.0458
     15 C         147.3134  141.9910  152.8486 C.3     1  UNL1        0.0992
     16 C         149.4506  143.4578  152.6728 C.3     1  UNL1        0.0899
     17 N         148.7841  142.1171  152.5818 N.3     1  UNL1       -0.2665
     18 C         149.5882  140.9024  152.2239 C.3     1  UNL1        0.0899
     19 C         143.2291  139.9308  162.5288 C.ar    1  UNL1        0.0536
     20 C         144.1178  140.3857  163.6482 C.ar    1  UNL1        0.0046
     21 C         143.6094  140.3795  165.0594 C.ar    1  UNL1        0.0016
     22 C         142.2122  139.9184  165.3512 C.ar    1  UNL1        0.0177
     23 C         141.3235  139.4635  164.2318 C.ar    1  UNL1        0.0016
     24 C         141.8319  139.4697  162.8206 C.ar    1  UNL1        0.0046
     25 C         141.7038  139.9121  166.7624 C.ar    1  UNL1        0.0814
     26 C         142.6187  139.5286  167.8875 C.ar    1  UNL1        0.0200
     27 C         142.1103  139.5224  169.2987 C.ar    1  UNL1        0.0145
     28 C         140.6870  139.8996  169.5848 C.ar    1  UNL1        0.0768
     29 CL        140.1786  139.8934  170.9960 Cl      1  UNL1       -0.0806
     30 C         139.7721  140.2831  168.4597 C.ar    1  UNL1        0.1101
     31 N         140.2805  140.2894  167.0485 N.ar    1  UNL1       -0.2430
@<TRIPOS>BOND
     1    16    17    1
     2    17    18    1
     3    17    15    1
     4    15     5    1
     5     5     6   ar
     6     6     7   ar
     7     7     8   ar
     8     8     9   ar
     9     9    10   ar
    10     9    11    1
    11    11    12    1
    12    12    13    1
    13    13     1    1
    14     1     2    1
    15     1     3   am
    16     3     4    2
    17     3    19    1
    18    19    20   ar
    19    20    21   ar
    20    21    22   ar
    21    22    25    1
    22    25    26   ar
    23    26    27   ar
    24    27    28   ar
    25    28    29    1
    26    28    30   ar
    27    30    31   ar
    28    22    23   ar
    29    23    24   ar
    30    13    14    1
    31    10     5   ar
    32    24    19   ar
    33    14     8    1
    34    31    25   ar
@<TRIPOS>MOLECULE
*****
 31 34 0 0 0
SMALL
GASTEIGER

@<TRIPOS>ATOM
      1 N         141.7187  137.4794  155.8614 N.am    1  UNL1       -0.2756
      2 C         142.7193  138.3634  155.1777 C.3     1  UNL1        0.1151
      3 C         140.4766  138.0731  156.4569 C.2     1  UNL1        0.2490
      4 O         139.4761  137.1891  157.1405 O.2     1  UNL1       -0.2699
      5 C         143.7715  131.0375  157.1018 C.ar    1  UNL1       -0.0065
      6 C         144.6165  131.9846  157.9011 C.ar    1  UNL1       -0.0033
      7 C         144.3749  133.4624  157.8129 C.ar    1  UNL1       -0.0048
      8 C         143.2884  133.9931  156.9254 C.ar    1  UNL1       -0.0245
      9 C         142.4434  133.0460  156.1260 C.ar    1  UNL1       -0.0263
     10 C         142.6850  131.5682  156.2143 C.ar    1  UNL1       -0.0075
     11 C         141.3568  133.5767  155.2384 C.3     1  UNL1        0.0277
     12 C         141.1152  135.0545  155.1502 C.3     1  UNL1        0.0248
     13 C         141.9603  136.0016  155.9496 C.3     1  UNL1        0.0804
     14 C         143.0468  135.4709  156.8371 C.3     1  UNL1        0.0458
     15 C         144.0131  129.5597  157.1900 C.3     1  UNL1        0.0992
     16 C         145.5146  128.5713  159.0658 C.3     1  UNL1        0.0899
     17 N         144.1527  128.9013  158.5305 N.3     1  UNL1       -0.2665
     18 C         142.9305  128.5728  159.3357 C.3     1  UNL1        0.0899
     19 C         140.2351  139.5509  156.3686 C.ar    1  UNL1        0.0536
     20 C         140.7700  140.4632  157.4324 C.ar    1  UNL1        0.0046
     21 C         140.5285  141.9409  157.3442 C.ar    1  UNL1        0.0016
     22 C         139.7519  142.5065  156.1922 C.ar    1  UNL1        0.0177
     23 C         139.2170  141.5943  155.1285 C.ar    1  UNL1        0.0016
     24 C         139.4585  140.1165  155.2167 C.ar    1  UNL1        0.0046
     25 C         139.5104  143.9843  156.1040 C.ar    1  UNL1        0.0814
     26 C         138.4776  144.5203  155.1574 C.ar    1  UNL1        0.0200
     27 C         138.2361  145.9981  155.0692 C.ar    1  UNL1        0.0145
     28 C         139.0272  146.9399  155.9276 C.ar    1  UNL1        0.0768
     29 CL        138.7857  148.4177  155.8394 Cl      1  UNL1       -0.0806
     30 C         140.0600  146.4039  156.8742 C.ar    1  UNL1        0.1101
     31 N         140.3015  144.9262  156.9624 N.ar    1  UNL1       -0.2430
@<TRIPOS>BOND
     1    16    17    1
     2    17    18    1
     3    17    15    1
     4    15     5    1
     5     5     6   ar
     6     6     7   ar
     7     7     8   ar
     8     8     9   ar
     9     9    10   ar
    10     9    11    1
    11    11    12    1
    12    12    13    1
    13    13     1    1
    14     1     2    1
    15     1     3   am
    16     3     4    2
    17     3    19    1
    18    19    20   ar
    19    20    21   ar
    20    21    22   ar
    21    22    25    1
    22    25    26   ar
    23    26    27   ar
    24    27    28   ar
    25    28    29    1
    26    28    30   ar
    27    30    31   ar
    28    22    23   ar
    29    23    24   ar
    30    13    14    1
    31    10     5   ar
    32    24    19   ar
    33    14     8    1
    34    31    25   ar
@<TRIPOS>MOLECULE
*****
 31 34 0 0 0
SMALL
GASTEIGER

@<TRIPOS>ATOM
      1 N         141.3866  137.3223  157.1485 N.am    1  UNL1       -0.2756
      2 C         142.5409  137.8023  157.9776 C.3     1  UNL1        0.1151
      3 C         140.0059  137.8468  157.4102 C.2     1  UNL1        0.2490
      4 O         138.8517  137.3668  156.5811 O.2     1  UNL1       -0.2699
      5 C         142.9137  131.9768  153.1059 C.ar    1  UNL1       -0.0065
      6 C         143.3084  131.6541  154.5165 C.ar    1  UNL1       -0.0033
      7 C         143.0819  132.6586  155.6072 C.ar    1  UNL1       -0.0048
      8 C         142.4607  133.9859  155.2872 C.ar    1  UNL1       -0.0245
      9 C         142.0661  134.3086  153.8765 C.ar    1  UNL1       -0.0263
     10 C         142.2926  133.3041  152.7858 C.ar    1  UNL1       -0.0075
     11 C         141.4450  135.6360  153.5564 C.3     1  UNL1        0.0277
     12 C         141.2185  136.6405  154.6471 C.3     1  UNL1        0.0248
     13 C         141.6131  136.3177  156.0579 C.3     1  UNL1        0.0804
     14 C         142.2342  134.9905  156.3779 C.3     1  UNL1        0.0458
     15 C         143.1402  130.9722  152.0152 C.3     1  UNL1        0.0992
     16 C         142.0671  128.6867  152.6271 C.3     1  UNL1        0.0899
     17 N         143.2852  129.5180  152.3532 N.3     1  UNL1       -0.2665
     18 C         144.6483  128.8951  152.4173 C.3     1  UNL1        0.0899
     19 C         139.7794  138.8514  158.5008 C.ar    1  UNL1        0.0536
     20 C         139.7601  140.3163  158.1790 C.ar    1  UNL1        0.0046
     21 C         139.5336  141.3209  159.2697 C.ar    1  UNL1        0.0016
     22 C         139.3264  140.8605  160.6822 C.ar    1  UNL1        0.0177
     23 C         139.3458  139.3956  161.0040 C.ar    1  UNL1        0.0016
     24 C         139.5723  138.3910  159.9133 C.ar    1  UNL1        0.0046
     25 C         139.0999  141.8651  161.7728 C.ar    1  UNL1        0.0814
     26 C         140.0682  141.9641  162.9141 C.ar    1  UNL1        0.0200
     27 C         139.8417  142.9687  164.0048 C.ar    1  UNL1        0.0145
     28 C         138.6469  143.8742  163.9542 C.ar    1  UNL1        0.0768
     29 CL        138.4204  144.8787  165.0449 Cl      1  UNL1       -0.0806
     30 C         137.6786  143.7751  162.8129 C.ar    1  UNL1        0.1101
     31 N         137.9051  142.7705  161.7222 N.ar    1  UNL1       -0.2430
@<TRIPOS>BOND
     1    16    17    1
     2    17    18    1
     3    17    15    1
     4    15     5    1
     5     5     6   ar
     6     6     7   ar
     7     7     8   ar
     8     8     9   ar
     9     9    10   ar
    10     9    11    1
    11    11    12    1
    12    12    13    1
    13    13     1    1
    14     1     2    1
    15     1     3   am
    16     3     4    2
    17     3    19    1
    18    19    20   ar
    19    20    21   ar
    20    21    22   ar
    21    22    25    1
    22    25    26   ar
    23    26    27   ar
    24    27    28   ar
    25    28    29    1
    26    28    30   ar
    27    30    31   ar
    28    22    23   ar
    29    23    24   ar
    30    13    14    1
    31    10     5   ar
    32    24    19   ar
    33    14     8    1
    34    31    25   ar
@<TRIPOS>MOLECULE
*****
 31 34 0 0 0
SMALL
GASTEIGER

@<TRIPOS>ATOM
      1 N         141.7302  138.8162  160.0187 N.am    1  UNL1       -0.2756
      2 C         142.8837  139.7537  160.2199 C.3     1  UNL1        0.1151
      3 C         140.7621  138.5673  161.1371 C.2     1  UNL1        0.2490
      4 O         139.6086  137.6299  160.9358 O.2     1  UNL1       -0.2699
      5 C         142.0785  135.1916  154.1885 C.ar    1  UNL1       -0.0065
      6 C         143.3540  135.0099  154.9566 C.ar    1  UNL1       -0.0033
      7 C         143.5394  135.6984  156.2763 C.ar    1  UNL1       -0.0048
      8 C         142.4494  136.5688  156.8278 C.ar    1  UNL1       -0.0245
      9 C         141.1739  136.7505  156.0597 C.ar    1  UNL1       -0.0263
     10 C         140.9884  136.0619  154.7401 C.ar    1  UNL1       -0.0075
     11 C         140.0837  137.6209  156.6113 C.3     1  UNL1        0.0277
     12 C         140.2692  138.3094  157.9309 C.3     1  UNL1        0.0248
     13 C         141.5447  138.1277  158.6990 C.3     1  UNL1        0.0804
     14 C         142.6348  137.2573  158.1475 C.3     1  UNL1        0.0458
     15 C         141.8931  134.5030  152.8689 C.3     1  UNL1        0.0992
     16 C         140.3190  132.5033  152.3462 C.3     1  UNL1        0.0899
     17 N         141.6421  133.0249  152.8229 N.3     1  UNL1       -0.2665
     18 C         142.7143  132.0684  153.2537 C.3     1  UNL1        0.0899
     19 C         140.9475  139.2559  162.4567 C.ar    1  UNL1        0.0536
     20 C         140.2177  140.5343  162.7447 C.ar    1  UNL1        0.0046
     21 C         140.4032  141.2229  164.0644 C.ar    1  UNL1        0.0016
     22 C         141.3184  140.6331  165.0960 C.ar    1  UNL1        0.0177
     23 C         142.0482  139.3546  164.8080 C.ar    1  UNL1        0.0016
     24 C         141.8628  138.6661  163.4884 C.ar    1  UNL1        0.0046
     25 C         141.5038  141.3216  166.4157 C.ar    1  UNL1        0.0814
     26 C         140.4262  142.2161  166.9529 C.ar    1  UNL1        0.0200
     27 C         140.6116  142.9047  168.2726 C.ar    1  UNL1        0.0145
     28 C         141.8747  142.6988  169.0550 C.ar    1  UNL1        0.0768
     29 CL        142.0601  143.3874  170.3746 Cl      1  UNL1       -0.0806
     30 C         142.9523  141.8044  168.5178 C.ar    1  UNL1        0.1101
     31 N         142.7669  141.1158  167.1981 N.ar    1  UNL1       -0.2430
@<TRIPOS>BOND
     1    16    17    1
     2    17    18    1
     3    17    15    1
     4    15     5    1
     5     5     6   ar
     6     6     7   ar
     7     7     8   ar
     8     8     9   ar
     9     9    10   ar
    10     9    11    1
    11    11    12    1
    12    12    13    1
    13    13     1    1
    14     1     2    1
    15     1     3   am
    16     3     4    2
    17     3    19    1
    18    19    20   ar
    19    20    21   ar
    20    21    22   ar
    21    22    25    1
    22    25    26   ar
    23    26    27   ar
    24    27    28   ar
    25    28    29    1
    26    28    30   ar
    27    30    31   ar
    28    22    23   ar
    29    23    24   ar
    30    13    14    1
    31    10     5   ar
    32    24    19   ar
    33    14     8    1
    34    31    25   ar
@<TRIPOS>MOLECULE
*****
 31 34 0 0 0
SMALL
GASTEIGER

@<TRIPOS>ATOM
      1 N         143.4904  141.8906  162.2305 N.am    1  UNL1       -0.2756
      2 C         144.9817  142.0507  162.2544 C.3     1  UNL1        0.1151
      3 C         142.7796  141.6791  160.9267 C.2     1  UNL1        0.2490
      4 O         141.2884  141.5190  160.9029 O.2     1  UNL1       -0.2699
      5 C         140.4193  140.9416  168.3065 C.ar    1  UNL1       -0.0065
      6 C         141.2501  139.7355  167.9825 C.ar    1  UNL1       -0.0033
      7 C         142.0305  139.6840  166.7026 C.ar    1  UNL1       -0.0048
      8 C         141.9800  140.8387  165.7465 C.ar    1  UNL1       -0.0245
      9 C         141.1492  142.0449  166.0704 C.ar    1  UNL1       -0.0263
     10 C         140.3688  142.0963  167.3504 C.ar    1  UNL1       -0.0075
     11 C         141.0988  143.1997  165.1144 C.3     1  UNL1        0.0277
     12 C         141.8792  143.1482  163.8344 C.3     1  UNL1        0.0248
     13 C         142.7100  141.9420  163.5105 C.3     1  UNL1        0.0804
     14 C         142.7604  140.7873  164.4665 C.3     1  UNL1        0.0458
     15 C         139.6389  140.9930  169.5864 C.3     1  UNL1        0.0992
     16 C         141.3344  141.4441  171.5026 C.3     1  UNL1        0.0899
     17 N         140.1177  141.8467  170.7230 N.3     1  UNL1       -0.2665
     18 C         139.3799  143.1030  171.0801 C.3     1  UNL1        0.0899
     19 C         143.5600  141.6277  159.6467 C.ar    1  UNL1        0.0536
     20 C         144.2042  142.8717  159.1106 C.ar    1  UNL1        0.0046
     21 C         144.9845  142.8202  157.8306 C.ar    1  UNL1        0.0016
     22 C         145.1208  141.5248  157.0868 C.ar    1  UNL1        0.0177
     23 C         144.4766  140.2808  157.6229 C.ar    1  UNL1        0.0016
     24 C         143.6962  140.3323  158.9029 C.ar    1  UNL1        0.0046
     25 C         145.9012  141.4734  155.8068 C.ar    1  UNL1        0.0814
     26 C         147.2988  142.0157  155.7582 C.ar    1  UNL1        0.0200
     27 C         148.0792  141.9642  154.4783 C.ar    1  UNL1        0.0145
     28 C         147.4620  141.3706  153.2468 C.ar    1  UNL1        0.0768
     29 CL        148.2424  141.3191  151.9669 Cl      1  UNL1       -0.0806
     30 C         146.0643  140.8283  153.2954 C.ar    1  UNL1        0.1101
     31 N         145.2839  140.8797  154.5754 N.ar    1  UNL1       -0.2430
@<TRIPOS>BOND
     1    16    17    1
     2    17    18    1
     3    17    15    1
     4    15     5    1
     5     5     6   ar
     6     6     7   ar
     7     7     8   ar
     8     8     9   ar
     9     9    10   ar
    10     9    11    1
    11    11    12    1
    12    12    13    1
    13    13     1    1
    14     1     2    1
    15     1     3   am
    16     3     4    2
    17     3    19    1
    18    19    20   ar
    19    20    21   ar
    20    21    22   ar
    21    22    25    1
    22    25    26   ar
    23    26    27   ar
    24    27    28   ar
    25    28    29    1
    26    28    30   ar
    27    30    31   ar
    28    22    23   ar
    29    23    24   ar
    30    13    14    1
    31    10     5   ar
    32    24    19   ar
    33    14     8    1
    34    31    25   ar
@<TRIPOS>MOLECULE
*****
 31 34 0 0 0
SMALL
GASTEIGER

@<TRIPOS>ATOM
      1 N         141.0071  142.5974  161.7135 N.am    1  UNL1       -0.2756
      2 C         142.2982  142.5669  160.9504 C.3     1  UNL1        0.1151
      3 C         139.8282  143.3441  161.1634 C.2     1  UNL1        0.2490
      4 O         138.5372  143.3746  161.9265 O.2     1  UNL1       -0.2699
      5 C         140.4986  140.5148  168.2445 C.ar    1  UNL1       -0.0065
      6 C         140.5507  142.0134  168.2097 C.ar    1  UNL1       -0.0033
      7 C         140.6628  142.7297  166.8965 C.ar    1  UNL1       -0.0048
      8 C         140.7228  141.9473  165.6182 C.ar    1  UNL1       -0.0245
      9 C         140.6707  140.4486  165.6530 C.ar    1  UNL1       -0.0263
     10 C         140.5586  139.7324  166.9661 C.ar    1  UNL1       -0.0075
     11 C         140.7307  139.6661  164.3746 C.3     1  UNL1        0.0277
     12 C         140.8428  140.3824  163.0614 C.3     1  UNL1        0.0248
     13 C         140.8950  141.8812  163.0266 C.3     1  UNL1        0.0804
     14 C         140.8349  142.6635  164.3050 C.3     1  UNL1        0.0458
     15 C         140.3864  139.7985  169.5576 C.3     1  UNL1        0.0992
     16 C         142.5532  138.6062  170.3534 C.3     1  UNL1        0.0899
     17 N         141.5686  139.7308  170.4784 N.3     1  UNL1       -0.2665
     18 C         141.7662  140.7879  171.5242 C.3     1  UNL1        0.0899
     19 C         139.9403  144.0604  159.8503 C.ar    1  UNL1        0.0536
     20 C         139.6107  143.3437  158.5745 C.ar    1  UNL1        0.0046
     21 C         139.7229  144.0600  157.2613 C.ar    1  UNL1        0.0016
     22 C         140.1646  145.4929  157.2239 C.ar    1  UNL1        0.0177
     23 C         140.4942  146.2096  158.4997 C.ar    1  UNL1        0.0016
     24 C         140.3821  145.4934  159.8129 C.ar    1  UNL1        0.0046
     25 C         140.2767  146.2092  155.9108 C.ar    1  UNL1        0.0814
     26 C         141.1687  145.6662  154.8340 C.ar    1  UNL1        0.0200
     27 C         141.2809  146.3824  153.5209 C.ar    1  UNL1        0.0145
     28 C         140.5010  147.6417  153.2844 C.ar    1  UNL1        0.0768
     29 CL        140.6131  148.3580  151.9713 Cl      1  UNL1       -0.0806
     30 C         139.6090  148.1847  154.3612 C.ar    1  UNL1        0.1101
     31 N         139.4968  147.4685  155.6743 N.ar    1  UNL1       -0.2430
@<TRIPOS>BOND
     1    16    17    1
     2    17    18    1
     3    17    15    1
     4    15     5    1
     5     5     6   ar
     6     6     7   ar
     7     7     8   ar
     8     8     9   ar
     9     9    10   ar
    10     9    11    1
    11    11    12    1
    12    12    13    1
    13    13     1    1
    14     1     2    1
    15     1     3   am
    16     3     4    2
    17     3    19    1
    18    19    20   ar
    19    20    21   ar
    20    21    22   ar
    21    22    25    1
    22    25    26   ar
    23    26    27   ar
    24    27    28   ar
    25    28    29    1
    26    28    30   ar
    27    30    31   ar
    28    22    23   ar
    29    23    24   ar
    30    13    14    1
    31    10     5   ar
    32    24    19   ar
    33    14     8    1
    34    31    25   ar
@<TRIPOS>MOLECULE
*****
 31 34 0 0 0
SMALL
GASTEIGER

@<TRIPOS>ATOM
      1 N         140.9191  140.3862  156.8726 N.am    1  UNL1       -0.2756
      2 C         140.4626  139.6405  158.0914 C.3     1  UNL1        0.1151
      3 C         141.5621  139.6460  155.7375 C.2     1  UNL1        0.2490
      4 O         142.0186  140.3917  154.5187 O.2     1  UNL1       -0.2699
      5 C         139.0223  146.8992  155.7619 C.ar    1  UNL1       -0.0065
      6 C         138.0581  145.9821  155.0696 C.ar    1  UNL1       -0.0033
      7 C         138.2446  144.4961  155.1533 C.ar    1  UNL1       -0.0048
      8 C         139.3953  143.9272  155.9292 C.ar    1  UNL1       -0.0245
      9 C         140.3595  144.8442  156.6215 C.ar    1  UNL1       -0.0263
     10 C         140.1730  146.3302  156.5378 C.ar    1  UNL1       -0.0075
     11 C         141.5103  144.2753  157.3975 C.3     1  UNL1        0.0277
     12 C         141.6968  142.7893  157.4812 C.3     1  UNL1        0.0248
     13 C         140.7326  141.8722  156.7889 C.3     1  UNL1        0.0804
     14 C         139.5819  142.4412  156.0129 C.3     1  UNL1        0.0458
     15 C         138.8357  148.3852  155.6782 C.3     1  UNL1        0.0992
     16 C         139.3446  150.6544  154.5200 C.3     1  UNL1        0.0899
     17 N         139.4967  149.1633  154.5793 N.3     1  UNL1       -0.2665
     18 C         140.3098  148.4504  153.5398 C.3     1  UNL1        0.0899
     19 C         141.7487  138.1600  155.8211 C.ar    1  UNL1        0.0536
     20 C         140.7176  137.2406  155.2368 C.ar    1  UNL1        0.0046
     21 C         140.9041  135.7546  155.3204 C.ar    1  UNL1        0.0016
     22 C         142.1217  135.1880  155.9885 C.ar    1  UNL1        0.0177
     23 C         143.1528  136.1074  156.5729 C.ar    1  UNL1        0.0016
     24 C         142.9663  137.5934  156.4892 C.ar    1  UNL1        0.0046
     25 C         142.3083  133.7020  156.0722 C.ar    1  UNL1        0.0814
     26 C         143.3336  133.1260  157.0032 C.ar    1  UNL1        0.0200
     27 C         143.5202  131.6400  157.0869 C.ar    1  UNL1        0.0145
     28 C         142.6814  130.7300  156.2395 C.ar    1  UNL1        0.0768
     29 CL        142.8679  129.2440  156.3232 Cl      1  UNL1       -0.0806
     30 C         141.6560  131.3059  155.3085 C.ar    1  UNL1        0.1101
     31 N         141.4695  132.7919  155.2248 N.ar    1  UNL1       -0.2430
@<TRIPOS>BOND
     1    16    17    1
     2    17    18    1
     3    17    15    1
     4    15     5    1
     5     5     6   ar
     6     6     7   ar
     7     7     8   ar
     8     8     9   ar
     9     9    10   ar
    10     9    11    1
    11    11    12    1
    12    12    13    1
    13    13     1    1
    14     1     2    1
    15     1     3   am
    16     3     4    2
    17     3    19    1
    18    19    20   ar
    19    20    21   ar
    20    21    22   ar
    21    22    25    1
    22    25    26   ar
    23    26    27   ar
    24    27    28   ar
    25    28    29    1
    26    28    30   ar
    27    30    31   ar
    28    22    23   ar
    29    23    24   ar
    30    13    14    1
    31    10     5   ar
    32    24    19   ar
    33    14     8    1
    34    31    25   ar
@<TRIPOS>MOLECULE
*****
 31 34 0 0 0
SMALL
GASTEIGER

@<TRIPOS>ATOM
      1 N         142.2456  136.6273  156.1956 N.am    1  UNL1       -0.2756
      2 C         140.7817  136.8190  156.4608 C.3     1  UNL1        0.1151
      3 C         143.1307  137.8186  155.9778 C.2     1  UNL1        0.2490
      4 O         144.5945  137.6269  155.7126 O.2     1  UNL1       -0.2699
      5 C         144.3511  130.2356  154.7947 C.ar    1  UNL1       -0.0065
      6 C         143.5628  130.7590  153.6309 C.ar    1  UNL1       -0.0033
      7 C         142.9840  132.1421  153.6783 C.ar    1  UNL1       -0.0048
      8 C         143.1936  133.0017  154.8895 C.ar    1  UNL1       -0.0245
      9 C         143.9820  132.4782  156.0533 C.ar    1  UNL1       -0.0263
     10 C         144.5607  131.0952  156.0059 C.ar    1  UNL1       -0.0075
     11 C         144.1916  133.3378  157.2646 C.3     1  UNL1        0.0277
     12 C         143.6128  134.7209  157.3121 C.3     1  UNL1        0.0248
     13 C         142.8244  135.2443  156.1482 C.3     1  UNL1        0.0804
     14 C         142.6148  134.3847  154.9370 C.3     1  UNL1        0.0458
     15 C         144.9299  128.8526  154.7472 C.3     1  UNL1        0.0992
     16 C         145.5865  127.1545  156.6007 C.3     1  UNL1        0.0899
     17 N         144.5342  127.8382  155.7789 N.3     1  UNL1       -0.2665
     18 C         143.0862  127.5073  155.9887 C.3     1  UNL1        0.0899
     19 C         142.5519  139.2016  156.0253 C.ar    1  UNL1        0.0536
     20 C         142.0549  139.8502  154.7674 C.ar    1  UNL1        0.0046
     21 C         141.4761  141.2332  154.8148 C.ar    1  UNL1        0.0016
     22 C         141.3944  141.9677  156.1201 C.ar    1  UNL1        0.0177
     23 C         141.8914  141.3191  157.3780 C.ar    1  UNL1        0.0016
     24 C         142.4702  139.9361  157.3306 C.ar    1  UNL1        0.0046
     25 C         140.8156  143.3507  156.1676 C.ar    1  UNL1        0.0814
     26 C         141.6137  144.4781  156.7524 C.ar    1  UNL1        0.0200
     27 C         141.0349  145.8611  156.7998 C.ar    1  UNL1        0.0145
     28 C         139.6580  146.1168  156.2624 C.ar    1  UNL1        0.0768
     29 CL        139.0793  147.4998  156.3099 Cl      1  UNL1       -0.0806
     30 C         138.8599  144.9894  155.6776 C.ar    1  UNL1        0.1101
     31 N         139.4387  143.6064  155.6302 N.ar    1  UNL1       -0.2430
@<TRIPOS>BOND
     1    16    17    1
     2    17    18    1
     3    17    15    1
     4    15     5    1
     5     5     6   ar
     6     6     7   ar
     7     7     8   ar
     8     8     9   ar
     9     9    10   ar
    10     9    11    1
    11    11    12    1
    12    12    13    1
    13    13     1    1
    14     1     2    1
    15     1     3   am
    16     3     4    2
    17     3    19    1
    18    19    20   ar
    19    20    21   ar
    20    21    22   ar
    21    22    25    1
    22    25    26   ar
    23    26    27   ar
    24    27    28   ar
    25    28    29    1
    26    28    30   ar
    27    30    31   ar
    28    22    23   ar
    29    23    24   ar
    30    13    14    1
    31    10     5   ar
    32    24    19   ar
    33    14     8    1
    34    31    25   ar
@<TRIPOS>MOLECULE
*****
 31 34 0 0 0
SMALL
GASTEIGER

@<TRIPOS>ATOM
      1 N         141.1302  139.6161  155.2338 N.am    1  UNL1       -0.2756
      2 C         142.1888  139.2934  154.2212 C.3     1  UNL1        0.1151
      3 C         140.6603  138.5604  156.1901 C.2     1  UNL1        0.2490
      4 O         139.6018  138.8831  157.2026 O.2     1  UNL1       -0.2699
      5 C         139.5411  146.2470  156.1036 C.ar    1  UNL1       -0.0065
      6 C         140.8956  145.9853  156.6924 C.ar    1  UNL1       -0.0033
      7 C         141.4844  144.6068  156.6362 C.ar    1  UNL1       -0.0048
      8 C         140.7185  143.4900  155.9912 C.ar    1  UNL1       -0.0245
      9 C         139.3640  143.7516  155.4024 C.ar    1  UNL1       -0.0263
     10 C         138.7753  145.1301  155.4586 C.ar    1  UNL1       -0.0075
     11 C         138.5981  142.6347  154.7573 C.3     1  UNL1        0.0277
     12 C         139.1868  141.2562  154.7011 C.3     1  UNL1        0.0248
     13 C         140.5415  140.9946  155.2900 C.3     1  UNL1        0.0804
     14 C         141.3073  142.1115  155.9350 C.3     1  UNL1        0.0458
     15 C         138.9524  147.6255  156.1598 C.3     1  UNL1        0.0992
     16 C         140.1278  148.2296  153.9230 C.3     1  UNL1        0.0899
     17 N         139.3158  148.6393  155.1158 N.3     1  UNL1       -0.2665
     18 C         138.8672  150.0630  155.2645 C.3     1  UNL1        0.0899
     19 C         141.2490  137.1819  156.1339 C.ar    1  UNL1        0.0536
     20 C         142.4739  136.8562  156.9361 C.ar    1  UNL1        0.0046
     21 C         143.0626  135.4777  156.8799 C.ar    1  UNL1        0.0016
     22 C         142.4265  134.4249  156.0216 C.ar    1  UNL1        0.0177
     23 C         141.2016  134.7506  155.2194 C.ar    1  UNL1        0.0016
     24 C         140.6129  136.1291  155.2755 C.ar    1  UNL1        0.0046
     25 C         143.0152  133.0464  155.9654 C.ar    1  UNL1        0.0814
     26 C         144.4289  132.8159  156.4106 C.ar    1  UNL1        0.0200
     27 C         145.0176  131.4374  156.3544 C.ar    1  UNL1        0.0145
     28 C         144.1926  130.2894  155.8530 C.ar    1  UNL1        0.0768
     29 CL        144.7813  128.9109  155.7968 Cl      1  UNL1       -0.0806
     30 C         142.7789  130.5199  155.4077 C.ar    1  UNL1        0.1101
     31 N         142.1902  131.8984  155.4639 N.ar    1  UNL1       -0.2430
@<TRIPOS>BOND
     1    16    17    1
     2    17    18    1
     3    17    15    1
     4    15     5    1
     5     5     6   ar
     6     6     7   ar
     7     7     8   ar
     8     8     9   ar
     9     9    10   ar
    10     9    11    1
    11    11    12    1
    12    12    13    1
    13    13     1    1
    14     1     2    1
    15     1     3   am
    16     3     4    2
    17     3    19    1
    18    19    20   ar
    19    20    21   ar
    20    21    22   ar
    21    22    25    1
    22    25    26   ar
    23    26    27   ar
    24    27    28   ar
    25    28    29    1
    26    28    30   ar
    27    30    31   ar
    28    22    23   ar
    29    23    24   ar
    30    13    14    1
    31    10     5   ar
    32    24    19   ar
    33    14     8    1
    34    31    25   ar
