@<TRIPOS>MOLECULE
*****
 40 46 0 0 0
SMALL
GASTEIGER

@<TRIPOS>ATOM
      1 C         137.7590  139.5761  161.9119 C.3     1  UNL1        0.0700
      2 C         138.4226  138.2808  162.2751 C.3     1  UNL1        0.0193
      3 C         139.0293  138.1045  163.6356 C.3     1  UNL1        0.0287
      4 C         138.9724  139.2236  164.6329 C.3     1  UNL1        0.0955
      5 C         138.3088  140.5189  164.2697 C.3     1  UNL1        0.0287
      6 C         137.7022  140.6951  162.9092 C.3     1  UNL1        0.0193
      7 O         138.6260  139.3671  163.8998 O.3     1  UNL1       -0.3571
      8 C         138.0775  139.5264  162.6697 C.3     1  UNL1        0.1562
      9 N         137.1524  139.7524  160.5515 N.3     1  UNL1       -0.2926
     10 H         136.8448  138.8296  160.2444 H       1  UNL1        0.1236
     11 C         137.9703  140.3301  159.4347 C.3     1  UNL1        0.1152
     12 O         141.6941  135.0307  155.0988 O.2     1  UNL1       -0.2707
     13 C         141.7266  136.1264  156.1228 C.2     1  UNL1        0.2718
     14 C         143.0329  136.5513  156.7252 C.3     1  UNL1        0.2898
     15 O         143.0655  137.6471  157.7491 O.3     1  UNL1       -0.4628
     16 C         141.7917  138.3178  158.1705 C.ar    1  UNL1        0.1708
     17 C         141.8242  139.4135  159.1944 C.ar    1  UNL1        0.0411
     18 C         140.5504  140.0843  159.6158 C.ar    1  UNL1        0.0193
     19 C         139.2441  139.6593  159.0133 C.ar    1  UNL1        0.0765
     20 N         139.2116  138.5636  157.9894 N.ar    1  UNL1       -0.2304
     21 C         140.4854  137.8929  157.5680 C.ar    1  UNL1        0.1682
     22 N         140.4528  136.7972  156.5442 N.am    1  UNL1       -0.2639
     23 H         139.5955  136.5183  156.1487 H       1  UNL1        0.1565
     24 C         139.5791  139.0473  165.9934 C.3     1  UNL1        0.0602
     25 C         140.6737  139.9651  166.4511 C.3     1  UNL1        0.1311
     26 O         141.2546  139.6922  165.0954 O.3     1  UNL1       -0.3808
     27 C         141.8897  140.8258  166.6254 C.3     1  UNL1        0.1293
     28 N         141.8316  141.4388  167.9932 N.am    1  UNL1       -0.2549
     29 C         142.7569  142.3735  168.7144 C.2     1  UNL1        0.2298
     30 O         144.0089  142.8554  168.0433 O.2     1  UNL1       -0.2745
     31 C         142.4302  142.8263  170.1065 C.3     1  UNL1        0.0919
     32 C         141.1782  142.3445  170.7776 C.3     1  UNL1        0.0567
     33 C         140.2529  141.4098  170.0564 C.ar    1  UNL1        0.0730
     34 N         138.9514  140.7759  170.4742 N.ar    1  UNL1       -0.2446
     35 C         138.1264  139.8481  169.6325 C.ar    1  UNL1        0.1278
     36 C         138.5827  139.4832  168.2510 C.ar    1  UNL1        0.1586
     37 F         137.7577  138.5554  167.4093 F       1  UNL1       -0.2027
     38 C         139.8640  140.0462  167.7112 C.ar    1  UNL1        0.0473
     39 C         140.5796  140.9570  168.6643 C.ar    1  UNL1        0.0679
     40 H         142.0881  140.1785  164.9969 H       1  UNL1        0.2107
@<TRIPOS>BOND
     1    12    13    2
     2    13    14    1
     3    14    15    1
     4    15    16    1
     5    16    17   ar
     6    17    18   ar
     7    18    19   ar
     8    19    11    1
     9    11     9    1
    10     9     1    1
    11     1     2    1
    12     2     3    1
    13     3     4    1
    14     4    24    1
    15    24    25    1
    16    25    26    1
    17    25    27    1
    18    27    28    1
    19    28    29   am
    20    29    30    2
    21    29    31    1
    22    31    32    1
    23    32    33    1
    24    33    34   ar
    25    34    35   ar
    26    35    36   ar
    27    36    37    1
    28    36    38   ar
    29    38    39   ar
    30     4     5    1
    31     5     6    1
    32     4     7    1
    33     7     8    1
    34    19    20   ar
    35    20    21   ar
    36    21    22    1
    37    22    13   am
    38    21    16   ar
    39     6     1    1
    40     8     1    1
    41    38    25    1
    42    39    28    1
    43    39    33   ar
    44     9    10    1
    45    26    40    1
    46    22    23    1
@<TRIPOS>MOLECULE
*****
 40 46 0 0 0
SMALL
GASTEIGER

@<TRIPOS>ATOM
      1 C         137.7733  139.5466  162.0343 C.3     1  UNL1        0.0700
      2 C         138.5149  138.2970  162.4062 C.3     1  UNL1        0.0193
      3 C         139.1142  138.1595  163.7744 C.3     1  UNL1        0.0287
      4 C         138.9718  139.2719  164.7708 C.3     1  UNL1        0.0955
      5 C         138.2302  140.5215  164.3989 C.3     1  UNL1        0.0287
      6 C         137.6310  140.6589  163.0306 C.3     1  UNL1        0.0193
      7 O         138.6263  139.3930  164.0332 O.3     1  UNL1       -0.3571
      8 C         138.0845  139.5172  162.7961 C.3     1  UNL1        0.1562
      9 N         137.1740  139.6841  160.6661 N.3     1  UNL1       -0.2926
     10 H         136.9455  138.7420  160.3487 H       1  UNL1        0.1236
     11 C         137.9592  140.3333  159.5652 C.3     1  UNL1        0.1152
     12 O         143.9120  144.5972  162.2363 O.2     1  UNL1       -0.2707
     13 C         143.4038  143.3909  161.5037 C.2     1  UNL1        0.2718
     14 C         144.3718  142.3998  160.9288 C.3     1  UNL1        0.2898
     15 O         143.8637  141.1934  160.1961 O.3     1  UNL1       -0.4628
     16 C         142.3876  140.9784  160.0384 C.ar    1  UNL1        0.1708
     17 C         141.8794  139.7722  159.3058 C.ar    1  UNL1        0.0411
     18 C         140.4033  139.5572  159.1481 C.ar    1  UNL1        0.0193
     19 C         139.4353  140.5484  159.7230 C.ar    1  UNL1        0.0765
     20 N         139.9435  141.7547  160.4556 N.ar    1  UNL1       -0.2304
     21 C         141.4196  141.9697  160.6133 C.ar    1  UNL1        0.1682
     22 N         141.9277  143.1759  161.3459 N.am    1  UNL1       -0.2639
     23 H         141.2924  143.8265  161.7233 H       1  UNL1        0.1565
     24 C         139.5711  139.1344  166.1390 C.3     1  UNL1        0.0602
     25 C         140.6970  140.0325  166.5583 C.3     1  UNL1        0.1311
     26 O         141.2336  139.7373  165.1890 O.3     1  UNL1       -0.3808
     27 C         141.9350  140.8689  166.6914 C.3     1  UNL1        0.1293
     28 N         141.9283  141.4932  168.0553 N.am    1  UNL1       -0.2549
     29 C         142.8928  142.4137  168.7425 C.2     1  UNL1        0.2298
     30 O         144.1350  142.8642  168.0327 O.2     1  UNL1       -0.2745
     31 C         142.6150  142.8838  170.1396 C.3     1  UNL1        0.0919
     32 C         141.3728  142.4333  170.8494 C.3     1  UNL1        0.0567
     33 C         140.4083  141.5128  170.1622 C.ar    1  UNL1        0.0730
     34 N         139.1062  140.9094  170.6215 N.ar    1  UNL1       -0.2446
     35 C         138.2387  139.9927  169.8109 C.ar    1  UNL1        0.1278
     36 C         138.6482  139.6080  168.4201 C.ar    1  UNL1        0.1586
     37 F         137.7807  138.6913  167.6094 F       1  UNL1       -0.2027
     38 C         139.9251  140.1400  167.8399 C.ar    1  UNL1        0.0473
     39 C         140.6860  141.0427  168.7651 C.ar    1  UNL1        0.0679
     40 H         142.0738  140.2053  165.0632 H       1  UNL1        0.2107
@<TRIPOS>BOND
     1    12    13    2
     2    13    14    1
     3    14    15    1
     4    15    16    1
     5    16    17   ar
     6    17    18   ar
     7    18    19   ar
     8    19    11    1
     9    11     9    1
    10     9     1    1
    11     1     2    1
    12     2     3    1
    13     3     4    1
    14     4    24    1
    15    24    25    1
    16    25    26    1
    17    25    27    1
    18    27    28    1
    19    28    29   am
    20    29    30    2
    21    29    31    1
    22    31    32    1
    23    32    33    1
    24    33    34   ar
    25    34    35   ar
    26    35    36   ar
    27    36    37    1
    28    36    38   ar
    29    38    39   ar
    30     4     5    1
    31     5     6    1
    32     4     7    1
    33     7     8    1
    34    19    20   ar
    35    20    21   ar
    36    21    22    1
    37    22    13   am
    38    21    16   ar
    39     6     1    1
    40     8     1    1
    41    38    25    1
    42    39    28    1
    43    39    33   ar
    44     9    10    1
    45    26    40    1
    46    22    23    1
@<TRIPOS>MOLECULE
*****
 40 46 0 0 0
SMALL
GASTEIGER

@<TRIPOS>ATOM
      1 C         138.0932  139.6549  161.0759 C.3     1  UNL1        0.0700
      2 C         138.4906  138.2646  161.4747 C.3     1  UNL1        0.0193
      3 C         139.2822  138.0415  162.7291 C.3     1  UNL1        0.0287
      4 C         139.6763  139.2088  163.5849 C.3     1  UNL1        0.0955
      5 C         139.2788  140.5991  163.1861 C.3     1  UNL1        0.0287
      6 C         138.4873  140.8221  161.9315 C.3     1  UNL1        0.0193
      7 O         139.2425  139.3807  162.9064 O.3     1  UNL1       -0.3571
      8 C         138.5268  139.5824  161.7721 C.3     1  UNL1        0.1562
      9 N         137.3016  139.8779  159.8214 N.3     1  UNL1       -0.2926
     10 H         136.8259  139.0000  159.6133 H       1  UNL1        0.1236
     11 C         137.9965  140.3030  158.5618 C.3     1  UNL1        0.1152
     12 O         142.0254  134.5190  155.2354 O.2     1  UNL1       -0.2707
     13 C         141.9957  135.8284  155.9668 C.2     1  UNL1        0.2718
     14 C         143.2793  136.5189  156.3207 C.3     1  UNL1        0.2898
     15 O         143.2498  137.8282  157.0521 O.3     1  UNL1       -0.4628
     16 C         141.9364  138.4469  157.4295 C.ar    1  UNL1        0.1708
     17 C         141.9068  139.7561  158.1609 C.ar    1  UNL1        0.0411
     18 C         140.5934  140.3748  158.5383 C.ar    1  UNL1        0.0193
     19 C         139.3098  139.6842  158.1844 C.ar    1  UNL1        0.0765
     20 N         139.3395  138.3750  157.4530 N.ar    1  UNL1       -0.2304
     21 C         140.6528  137.7563  157.0756 C.ar    1  UNL1        0.1682
     22 N         140.6824  136.4470  156.3442 N.am    1  UNL1       -0.2639
     23 H         139.8399  135.9938  156.1119 H       1  UNL1        0.1565
     24 C         140.4678  138.9857  164.8393 C.3     1  UNL1        0.0602
     25 C         139.8780  139.3421  166.1717 C.3     1  UNL1        0.1311
     26 O         138.8052  138.3696  165.7804 O.3     1  UNL1       -0.3808
     27 C         139.0640  139.4952  167.4222 C.3     1  UNL1        0.1293
     28 N         139.7570  140.4880  168.3078 N.am    1  UNL1       -0.2549
     29 C         139.4172  141.0321  169.6637 C.2     1  UNL1        0.2298
     30 O         138.1749  140.5717  170.3669 O.2     1  UNL1       -0.2745
     31 C         140.3199  142.0367  170.3164 C.3     1  UNL1        0.0919
     32 C         141.5622  142.4971  169.6132 C.3     1  UNL1        0.0567
     33 C         141.9020  141.9530  168.2573 C.ar    1  UNL1        0.0730
     34 N         143.0605  142.2283  167.3341 N.ar    1  UNL1       -0.2446
     35 C         143.2689  141.5987  165.9886 C.ar    1  UNL1        0.1278
     36 C         142.2758  140.6047  165.4638 C.ar    1  UNL1        0.1586
     37 F         142.4842  139.9751  164.1184 F       1  UNL1       -0.2027
     38 C         141.0741  140.2402  166.2844 C.ar    1  UNL1        0.0473
     39 C         140.9993  140.9484  167.6046 C.ar    1  UNL1        0.0679
     40 H         138.1436  138.3161  166.4878 H       1  UNL1        0.2107
@<TRIPOS>BOND
     1    12    13    2
     2    13    14    1
     3    14    15    1
     4    15    16    1
     5    16    17   ar
     6    17    18   ar
     7    18    19   ar
     8    19    11    1
     9    11     9    1
    10     9     1    1
    11     1     2    1
    12     2     3    1
    13     3     4    1
    14     4    24    1
    15    24    25    1
    16    25    26    1
    17    25    27    1
    18    27    28    1
    19    28    29   am
    20    29    30    2
    21    29    31    1
    22    31    32    1
    23    32    33    1
    24    33    34   ar
    25    34    35   ar
    26    35    36   ar
    27    36    37    1
    28    36    38   ar
    29    38    39   ar
    30     4     5    1
    31     5     6    1
    32     4     7    1
    33     7     8    1
    34    19    20   ar
    35    20    21   ar
    36    21    22    1
    37    22    13   am
    38    21    16   ar
    39     6     1    1
    40     8     1    1
    41    38    25    1
    42    39    28    1
    43    39    33   ar
    44     9    10    1
    45    26    40    1
    46    22    23    1
@<TRIPOS>MOLECULE
*****
 40 46 0 0 0
SMALL
GASTEIGER

@<TRIPOS>ATOM
      1 C         142.3375  138.5422  159.6456 C.3     1  UNL1        0.0700
      2 C         141.4787  139.7646  159.5114 C.3     1  UNL1        0.0193
      3 C         140.7597  140.3113  160.7089 C.3     1  UNL1        0.0287
      4 C         140.8994  139.6354  162.0408 C.3     1  UNL1        0.0955
      5 C         141.7582  138.4130  162.1751 C.3     1  UNL1        0.0287
      6 C         142.4772  137.8663  160.9774 C.3     1  UNL1        0.0193
      7 O         141.3128  139.2991  161.4131 O.3     1  UNL1       -0.3571
      8 C         141.9629  138.8048  160.3303 C.3     1  UNL1        0.1562
      9 N         143.0565  137.9955  158.4481 N.3     1  UNL1       -0.2926
     10 H         143.6932  138.7254  158.1283 H       1  UNL1        0.1236
     11 C         142.2785  137.5432  157.2481 C.3     1  UNL1        0.1152
     12 O         144.9723  130.2938  158.2181 O.2     1  UNL1       -0.2707
     13 C         144.0921  131.2661  157.4899 C.2     1  UNL1        0.2718
     14 C         143.2298  130.7941  156.3570 C.3     1  UNL1        0.2898
     15 O         142.3497  131.7662  155.6288 O.3     1  UNL1       -0.4628
     16 C         142.3319  133.2105  156.0336 C.ar    1  UNL1        0.1708
     17 C         141.4518  134.1827  155.3055 C.ar    1  UNL1        0.0411
     18 C         141.4340  135.6269  155.7103 C.ar    1  UNL1        0.0193
     19 C         142.2963  136.0989  156.8433 C.ar    1  UNL1        0.0765
     20 N         143.1764  135.1267  157.5714 N.ar    1  UNL1       -0.2304
     21 C         143.1942  133.6825  157.1666 C.ar    1  UNL1        0.1682
     22 N         144.0743  132.7104  157.8948 N.am    1  UNL1       -0.2639
     23 H         144.6403  133.0202  158.6383 H       1  UNL1        0.1565
     24 C         140.1804  140.1821  163.2384 C.3     1  UNL1        0.0602
     25 C         140.9578  140.8001  164.3625 C.3     1  UNL1        0.1311
     26 O         141.7944  141.3755  163.2584 O.3     1  UNL1       -0.3808
     27 C         141.9102  141.5384  165.2558 C.3     1  UNL1        0.1293
     28 N         141.4997  141.2901  166.6770 N.am    1  UNL1       -0.2549
     29 C         142.0683  141.7608  167.9828 C.2     1  UNL1        0.2298
     30 O         143.2743  142.6526  167.9977 O.2     1  UNL1       -0.2745
     31 C         141.4308  141.3398  169.2736 C.3     1  UNL1        0.0919
     32 C         140.2247  140.4480  169.2587 C.3     1  UNL1        0.0567
     33 C         139.6562  139.9773  167.9529 C.ar    1  UNL1        0.0730
     34 N         138.4766  139.0936  167.6398 N.ar    1  UNL1       -0.2446
     35 C         138.0224  138.7047  166.2641 C.ar    1  UNL1        0.1278
     36 C         138.7635  139.2057  165.0600 C.ar    1  UNL1        0.1586
     37 F         138.3093  138.8168  163.6844 F       1  UNL1       -0.2027
     38 C         139.9588  140.0956  165.2316 C.ar    1  UNL1        0.0473
     39 C         140.2936  140.3984  166.6621 C.ar    1  UNL1        0.0679
     40 H         142.5049  141.9153  163.6388 H       1  UNL1        0.2107
@<TRIPOS>BOND
     1    12    13    2
     2    13    14    1
     3    14    15    1
     4    15    16    1
     5    16    17   ar
     6    17    18   ar
     7    18    19   ar
     8    19    11    1
     9    11     9    1
    10     9     1    1
    11     1     2    1
    12     2     3    1
    13     3     4    1
    14     4    24    1
    15    24    25    1
    16    25    26    1
    17    25    27    1
    18    27    28    1
    19    28    29   am
    20    29    30    2
    21    29    31    1
    22    31    32    1
    23    32    33    1
    24    33    34   ar
    25    34    35   ar
    26    35    36   ar
    27    36    37    1
    28    36    38   ar
    29    38    39   ar
    30     4     5    1
    31     5     6    1
    32     4     7    1
    33     7     8    1
    34    19    20   ar
    35    20    21   ar
    36    21    22    1
    37    22    13   am
    38    21    16   ar
    39     6     1    1
    40     8     1    1
    41    38    25    1
    42    39    28    1
    43    39    33   ar
    44     9    10    1
    45    26    40    1
    46    22    23    1
@<TRIPOS>MOLECULE
*****
 40 46 0 0 0
SMALL
GASTEIGER

@<TRIPOS>ATOM
      1 C         140.9968  139.3456  158.3668 C.3     1  UNL1        0.0700
      2 C         141.8578  139.7813  159.5152 C.3     1  UNL1        0.0193
      3 C         141.4912  139.3932  160.9170 C.3     1  UNL1        0.0287
      4 C         140.2635  138.5692  161.1703 C.3     1  UNL1        0.0955
      5 C         139.4025  138.1335  160.0220 C.3     1  UNL1        0.0287
      6 C         139.7692  138.5218  158.6202 C.3     1  UNL1        0.0193
      7 O         140.4238  138.7575  160.3850 O.3     1  UNL1       -0.3571
      8 C         140.7553  139.1085  159.1175 C.3     1  UNL1        0.1562
      9 N         141.3633  139.7338  156.9650 N.3     1  UNL1       -0.2926
     10 H         140.5061  139.6909  156.4139 H       1  UNL1        0.1236
     11 C         142.3994  138.9491  156.2162 C.3     1  UNL1        0.1152
     12 O         145.0828  131.8559  158.0153 O.2     1  UNL1       -0.2707
     13 C         144.0767  132.7273  157.3235 C.2     1  UNL1        0.2718
     14 C         142.9591  132.1057  156.5396 C.3     1  UNL1        0.2898
     15 O         141.9530  132.9770  155.8478 O.3     1  UNL1       -0.4628
     16 C         142.0646  134.4701  155.9399 C.ar    1  UNL1        0.1708
     17 C         141.0586  135.3414  155.2481 C.ar    1  UNL1        0.0411
     18 C         141.1702  136.8345  155.3403 C.ar    1  UNL1        0.0193
     19 C         142.2878  137.4561  156.1242 C.ar    1  UNL1        0.0765
     20 N         143.2939  136.5847  156.8159 N.ar    1  UNL1       -0.2304
     21 C         143.1822  135.0917  156.7238 C.ar    1  UNL1        0.1682
     22 N         144.1883  134.2204  157.4156 N.am    1  UNL1       -0.2639
     23 H         144.9218  134.6284  157.9301 H       1  UNL1        0.1565
     24 C         139.8969  138.1810  162.5721 C.3     1  UNL1        0.0602
     25 C         140.9663  138.0345  163.6137 C.3     1  UNL1        0.1311
     26 O         141.4876  136.9634  162.7021 O.3     1  UNL1       -0.3808
     27 C         142.1446  137.6640  164.4648 C.3     1  UNL1        0.1293
     28 N         142.1280  138.5367  165.6847 N.am    1  UNL1       -0.2549
     29 C         143.0416  138.6204  166.8714 C.2     1  UNL1        0.2298
     30 O         144.2302  137.7106  166.9685 O.2     1  UNL1       -0.2745
     31 C         142.7666  139.6140  167.9609 C.3     1  UNL1        0.0919
     32 C         141.5780  140.5238  167.8638 C.3     1  UNL1        0.0567
     33 C         140.6644  140.4401  166.6771 C.ar    1  UNL1        0.0730
     34 N         139.4207  141.2121  166.3199 N.ar    1  UNL1       -0.2446
     35 C         138.6004  141.0140  165.0798 C.ar    1  UNL1        0.1278
     36 C         139.0008  139.9760  164.0737 C.ar    1  UNL1        0.1586
     37 F         138.1805  139.7778  162.8336 F       1  UNL1       -0.2027
     38 C         140.2214  139.1361  164.3077 C.ar    1  UNL1        0.0473
     39 C         140.9394  139.4465  165.5876 C.ar    1  UNL1        0.0679
     40 H         142.2889  136.5741  163.0857 H       1  UNL1        0.2107
@<TRIPOS>BOND
     1    12    13    2
     2    13    14    1
     3    14    15    1
     4    15    16    1
     5    16    17   ar
     6    17    18   ar
     7    18    19   ar
     8    19    11    1
     9    11     9    1
    10     9     1    1
    11     1     2    1
    12     2     3    1
    13     3     4    1
    14     4    24    1
    15    24    25    1
    16    25    26    1
    17    25    27    1
    18    27    28    1
    19    28    29   am
    20    29    30    2
    21    29    31    1
    22    31    32    1
    23    32    33    1
    24    33    34   ar
    25    34    35   ar
    26    35    36   ar
    27    36    37    1
    28    36    38   ar
    29    38    39   ar
    30     4     5    1
    31     5     6    1
    32     4     7    1
    33     7     8    1
    34    19    20   ar
    35    20    21   ar
    36    21    22    1
    37    22    13   am
    38    21    16   ar
    39     6     1    1
    40     8     1    1
    41    38    25    1
    42    39    28    1
    43    39    33   ar
    44     9    10    1
    45    26    40    1
    46    22    23    1
@<TRIPOS>MOLECULE
*****
 40 46 0 0 0
SMALL
GASTEIGER

@<TRIPOS>ATOM
      1 C         144.1706  140.0852  157.2651 C.3     1  UNL1        0.0700
      2 C         143.3053  139.7635  158.4474 C.3     1  UNL1        0.0193
      3 C         143.2042  140.7319  159.5884 C.3     1  UNL1        0.0287
      4 C         143.9685  142.0220  159.5472 C.3     1  UNL1        0.0955
      5 C         144.8338  142.3437  158.3650 C.3     1  UNL1        0.0287
      6 C         144.9349  141.3752  157.2239 C.3     1  UNL1        0.0193
      7 O         144.0555  141.5227  158.8983 O.3     1  UNL1       -0.3571
      8 C         144.1469  140.6471  157.8666 C.3     1  UNL1        0.1562
      9 N         144.2717  139.1168  156.1241 N.3     1  UNL1       -0.2926
     10 H         144.7604  139.5999  155.3703 H       1  UNL1        0.1236
     11 C         143.0276  138.5290  155.5269 C.3     1  UNL1        0.1152
     12 O         145.1062  131.4825  158.1301 O.2     1  UNL1       -0.2707
     13 C         144.1351  132.3641  157.4021 C.2     1  UNL1        0.2718
     14 C         142.8859  131.7782  156.8139 C.3     1  UNL1        0.2898
     15 O         141.9147  132.6597  156.0859 O.3     1  UNL1       -0.4628
     16 C         142.1929  134.1270  155.9461 C.ar    1  UNL1        0.1708
     17 C         141.2219  135.0085  155.2181 C.ar    1  UNL1        0.0411
     18 C         141.5001  136.4758  155.0784 C.ar    1  UNL1        0.0193
     19 C         142.7494  137.0617  155.6666 C.ar    1  UNL1        0.0765
     20 N         143.7205  136.1801  156.3946 N.ar    1  UNL1       -0.2304
     21 C         143.4422  134.7128  156.5344 C.ar    1  UNL1        0.1682
     22 N         144.4133  133.8314  157.2623 N.am    1  UNL1       -0.2639
     23 H         145.2333  134.2159  157.6484 H       1  UNL1        0.1565
     24 C         143.8674  142.9904  160.6883 C.3     1  UNL1        0.0602
     25 C         142.5545  143.6438  161.0034 C.3     1  UNL1        0.1311
     26 O         142.5991  144.0672  159.5651 O.3     1  UNL1       -0.3808
     27 C         141.2509  144.3857  161.0179 C.3     1  UNL1        0.1293
     28 N         140.6751  144.2842  162.3993 N.am    1  UNL1       -0.2549
     29 C         139.4103  144.8205  163.0013 C.2     1  UNL1        0.2298
     30 O         138.4625  145.6251  162.1620 O.2     1  UNL1       -0.2745
     31 C         139.0932  144.5522  164.4426 C.3     1  UNL1        0.0919
     32 C         140.0409  143.7476  165.2819 C.3     1  UNL1        0.0567
     33 C         141.3058  143.2113  164.6798 C.ar    1  UNL1        0.0730
     34 N         142.4207  142.3883  165.2713 N.ar    1  UNL1       -0.2446
     35 C         143.6406  141.9197  164.5349 C.ar    1  UNL1        0.1278
     36 C         143.8224  142.2675  163.0872 C.ar    1  UNL1        0.1586
     37 F         145.0423  141.7989  162.3508 F       1  UNL1       -0.2027
     38 C         142.7844  143.0838  162.3758 C.ar    1  UNL1        0.0473
     39 C         141.6229  143.4796  163.2385 C.ar    1  UNL1        0.0679
     40 H         141.8067  144.5861  159.3561 H       1  UNL1        0.2107
@<TRIPOS>BOND
     1    12    13    2
     2    13    14    1
     3    14    15    1
     4    15    16    1
     5    16    17   ar
     6    17    18   ar
     7    18    19   ar
     8    19    11    1
     9    11     9    1
    10     9     1    1
    11     1     2    1
    12     2     3    1
    13     3     4    1
    14     4    24    1
    15    24    25    1
    16    25    26    1
    17    25    27    1
    18    27    28    1
    19    28    29   am
    20    29    30    2
    21    29    31    1
    22    31    32    1
    23    32    33    1
    24    33    34   ar
    25    34    35   ar
    26    35    36   ar
    27    36    37    1
    28    36    38   ar
    29    38    39   ar
    30     4     5    1
    31     5     6    1
    32     4     7    1
    33     7     8    1
    34    19    20   ar
    35    20    21   ar
    36    21    22    1
    37    22    13   am
    38    21    16   ar
    39     6     1    1
    40     8     1    1
    41    38    25    1
    42    39    28    1
    43    39    33   ar
    44     9    10    1
    45    26    40    1
    46    22    23    1
@<TRIPOS>MOLECULE
*****
 40 46 0 0 0
SMALL
GASTEIGER

@<TRIPOS>ATOM
      1 C         139.2009  138.0154  163.0704 C.3     1  UNL1        0.0700
      2 C         140.5555  137.6998  162.5087 C.3     1  UNL1        0.0193
      3 C         140.8904  138.0837  161.0979 C.3     1  UNL1        0.0287
      4 C         139.8707  138.7833  160.2487 C.3     1  UNL1        0.0955
      5 C         138.5162  139.0989  160.8104 C.3     1  UNL1        0.0287
      6 C         138.1813  138.7149  162.2212 C.3     1  UNL1        0.0193
      7 O         139.6411  138.5926  161.0161 O.3     1  UNL1       -0.3571
      8 C         139.3383  138.2455  162.2917 C.3     1  UNL1        0.1562
      9 N         138.8659  137.6315  164.4812 N.3     1  UNL1       -0.2926
     10 H         138.0669  136.9994  164.4326 H       1  UNL1        0.1236
     11 C         138.5193  138.6912  165.4846 C.3     1  UNL1        0.1152
     12 O         140.5473  142.1291  172.1793 O.2     1  UNL1       -0.2707
     13 C         140.9305  141.5277  170.8596 C.2     1  UNL1        0.2718
     14 C         142.3729  141.4708  170.4519 C.3     1  UNL1        0.2898
     15 O         142.7562  140.8694  169.1322 O.3     1  UNL1       -0.4628
     16 C         141.6969  140.3249  168.2203 C.ar    1  UNL1        0.1708
     17 C         142.0801  139.7235  166.9007 C.ar    1  UNL1        0.0411
     18 C         141.0209  139.1790  165.9888 C.ar    1  UNL1        0.0193
     19 C         139.5785  139.2358  166.3966 C.ar    1  UNL1        0.0765
     20 N         139.1953  139.8372  167.7162 N.ar    1  UNL1       -0.2304
     21 C         140.2546  140.3818  168.6281 C.ar    1  UNL1        0.1682
     22 N         139.8713  140.9831  169.9477 N.am    1  UNL1       -0.2639
     23 H         138.9246  141.0204  170.2153 H       1  UNL1        0.1565
     24 C         140.2057  139.1672  158.8378 C.3     1  UNL1        0.0602
     25 C         141.4828  139.8962  158.5420 C.3     1  UNL1        0.1311
     26 O         141.0486  140.7901  159.6657 O.3     1  UNL1       -0.3808
     27 C         142.6691  140.8122  158.4811 C.3     1  UNL1        0.1293
     28 N         143.5695  140.3320  157.3816 N.am    1  UNL1       -0.2549
     29 C         144.8814  140.8424  156.8638 C.2     1  UNL1        0.2298
     30 O         145.5113  142.0551  157.4824 O.2     1  UNL1       -0.2745
     31 C         145.5636  140.1400  155.7274 C.3     1  UNL1        0.0919
     32 C         144.9337  138.9273  155.1089 C.3     1  UNL1        0.0567
     33 C         143.6217  138.4170  155.6267 C.ar    1  UNL1        0.0730
     34 N         142.7723  137.2450  155.2077 N.ar    1  UNL1       -0.2446
     35 C         141.4644  136.8530  155.8286 C.ar    1  UNL1        0.1278
     36 C         140.9032  137.6555  156.9649 C.ar    1  UNL1        0.1586
     37 F         139.5952  137.2636  157.5857 F       1  UNL1       -0.2027
     38 C         141.6499  138.8500  157.4802 C.ar    1  UNL1        0.0473
     39 C         142.9396  139.1193  156.7630 C.ar    1  UNL1        0.0679
     40 H         141.7101  141.4870  159.7985 H       1  UNL1        0.2107
@<TRIPOS>BOND
     1    12    13    2
     2    13    14    1
     3    14    15    1
     4    15    16    1
     5    16    17   ar
     6    17    18   ar
     7    18    19   ar
     8    19    11    1
     9    11     9    1
    10     9     1    1
    11     1     2    1
    12     2     3    1
    13     3     4    1
    14     4    24    1
    15    24    25    1
    16    25    26    1
    17    25    27    1
    18    27    28    1
    19    28    29   am
    20    29    30    2
    21    29    31    1
    22    31    32    1
    23    32    33    1
    24    33    34   ar
    25    34    35   ar
    26    35    36   ar
    27    36    37    1
    28    36    38   ar
    29    38    39   ar
    30     4     5    1
    31     5     6    1
    32     4     7    1
    33     7     8    1
    34    19    20   ar
    35    20    21   ar
    36    21    22    1
    37    22    13   am
    38    21    16   ar
    39     6     1    1
    40     8     1    1
    41    38    25    1
    42    39    28    1
    43    39    33   ar
    44     9    10    1
    45    26    40    1
    46    22    23    1
@<TRIPOS>MOLECULE
*****
 40 46 0 0 0
SMALL
GASTEIGER

@<TRIPOS>ATOM
      1 C         139.9531  137.6006  164.3139 C.3     1  UNL1        0.0700
      2 C         141.4063  137.5959  164.6858 C.3     1  UNL1        0.0193
      3 C         142.4414  137.9814  163.6709 C.3     1  UNL1        0.0287
      4 C         142.0233  138.3715  162.2841 C.3     1  UNL1        0.0955
      5 C         140.5701  138.3761  161.9122 C.3     1  UNL1        0.0287
      6 C         139.5351  137.9907  162.9272 C.3     1  UNL1        0.0193
      7 O         141.4199  138.1679  162.8060 O.3     1  UNL1       -0.3571
      8 C         140.4839  137.8195  163.7237 C.3     1  UNL1        0.1562
      9 N         138.9180  137.2152  165.3288 N.3     1  UNL1       -0.2926
     10 H         138.2523  136.6057  164.8536 H       1  UNL1        0.1236
     11 C         138.1155  138.2763  166.0216 C.3     1  UNL1        0.1152
     12 O         140.7250  142.2062  172.2262 O.2     1  UNL1       -0.2707
     13 C         140.5423  142.0951  170.7415 C.2     1  UNL1        0.2718
     14 C         141.0467  143.1829  169.8404 C.3     1  UNL1        0.2898
     15 O         140.8640  143.0720  168.3556 O.3     1  UNL1       -0.4628
     16 C         140.1768  141.8730  167.7721 C.ar    1  UNL1        0.1708
     17 C         139.9941  141.7620  166.2875 C.ar    1  UNL1        0.0411
     18 C         139.3070  140.5630  165.7040 C.ar    1  UNL1        0.0193
     19 C         138.8026  139.4752  166.6052 C.ar    1  UNL1        0.0765
     20 N         138.9853  139.5863  168.0899 N.ar    1  UNL1       -0.2304
     21 C         139.6725  140.7852  168.6733 C.ar    1  UNL1        0.1682
     22 N         139.8551  140.8962  170.1580 N.am    1  UNL1       -0.2639
     23 H         139.5241  140.1822  170.7495 H       1  UNL1        0.1565
     24 C         143.0584  138.7569  161.2692 C.3     1  UNL1        0.0602
     25 C         142.9378  138.2738  159.8542 C.3     1  UNL1        0.1311
     26 O         142.7340  136.9332  160.4955 O.3     1  UNL1       -0.3808
     27 C         142.7747  137.5105  158.5733 C.3     1  UNL1        0.1293
     28 N         142.9028  138.4804  157.4362 N.am    1  UNL1       -0.2549
     29 C         142.8301  138.2987  155.9491 C.2     1  UNL1        0.2298
     30 O         142.5877  136.9360  155.3709 O.2     1  UNL1       -0.2745
     31 C         142.9999  139.4797  155.0401 C.3     1  UNL1        0.0919
     32 C         143.2423  140.8424  155.6182 C.3     1  UNL1        0.0567
     33 C         143.3150  141.0241  157.1054 C.ar    1  UNL1        0.0730
     34 N         143.5425  142.2510  157.9500 N.ar    1  UNL1       -0.2446
     35 C         143.5900  142.2781  159.4490 C.ar    1  UNL1        0.1278
     36 C         143.4021  141.0104  160.2284 C.ar    1  UNL1        0.1586
     37 F         143.4496  141.0375  161.7274 F       1  UNL1       -0.2027
     38 C         143.1669  139.7154  159.5088 C.ar    1  UNL1        0.0473
     39 C         143.1453  139.8431  158.0144 C.ar    1  UNL1        0.0679
     40 H         142.6031  136.2622  159.8074 H       1  UNL1        0.2107
@<TRIPOS>BOND
     1    12    13    2
     2    13    14    1
     3    14    15    1
     4    15    16    1
     5    16    17   ar
     6    17    18   ar
     7    18    19   ar
     8    19    11    1
     9    11     9    1
    10     9     1    1
    11     1     2    1
    12     2     3    1
    13     3     4    1
    14     4    24    1
    15    24    25    1
    16    25    26    1
    17    25    27    1
    18    27    28    1
    19    28    29   am
    20    29    30    2
    21    29    31    1
    22    31    32    1
    23    32    33    1
    24    33    34   ar
    25    34    35   ar
    26    35    36   ar
    27    36    37    1
    28    36    38   ar
    29    38    39   ar
    30     4     5    1
    31     5     6    1
    32     4     7    1
    33     7     8    1
    34    19    20   ar
    35    20    21   ar
    36    21    22    1
    37    22    13   am
    38    21    16   ar
    39     6     1    1
    40     8     1    1
    41    38    25    1
    42    39    28    1
    43    39    33   ar
    44     9    10    1
    45    26    40    1
    46    22    23    1
@<TRIPOS>MOLECULE
*****
 40 46 0 0 0
SMALL
GASTEIGER

@<TRIPOS>ATOM
      1 C         144.4584  142.7202  161.8193 C.3     1  UNL1        0.0700
      2 C         143.5167  143.6600  162.5121 C.3     1  UNL1        0.0193
      3 C         142.3538  144.2426  161.7649 C.3     1  UNL1        0.0287
      4 C         142.1327  143.8855  160.3248 C.3     1  UNL1        0.0955
      5 C         143.0744  142.9457  159.6321 C.3     1  UNL1        0.0287
      6 C         144.2373  142.3630  160.3793 C.3     1  UNL1        0.0193
      7 O         142.7838  143.5411  160.6928 O.3     1  UNL1       -0.3571
      8 C         143.8352  143.0142  161.3684 C.3     1  UNL1        0.1562
      9 N         145.6212  142.1375  162.5665 N.3     1  UNL1       -0.2926
     10 H         146.2986  141.8341  161.8669 H       1  UNL1        0.1236
     11 C         145.4109  140.9794  163.4963 C.3     1  UNL1        0.1152
     12 O         138.0981  139.0207  165.3503 O.2     1  UNL1       -0.2707
     13 C         139.3467  138.7764  164.5557 C.2     1  UNL1        0.2718
     14 C         139.4062  137.6349  163.5845 C.3     1  UNL1        0.2898
     15 O         140.6547  137.3905  162.7898 O.3     1  UNL1       -0.4628
     16 C         141.8437  138.2877  162.9664 C.ar    1  UNL1        0.1708
     17 C         143.0923  138.0434  162.1718 C.ar    1  UNL1        0.0411
     18 C         144.2813  138.9407  162.3485 C.ar    1  UNL1        0.0193
     19 C         144.2218  140.0822  163.3197 C.ar    1  UNL1        0.0765
     20 N         142.9732  140.3265  164.1143 N.ar    1  UNL1       -0.2304
     21 C         141.7842  139.4293  163.9377 C.ar    1  UNL1        0.1682
     22 N         140.5357  139.6736  164.7323 N.am    1  UNL1       -0.2639
     23 H         140.4967  140.4229  165.3698 H       1  UNL1        0.1565
     24 C         140.9698  144.4681  159.5776 C.3     1  UNL1        0.0602
     25 C         139.8962  143.5684  159.0413 C.3     1  UNL1        0.1311
     26 O         140.0339  142.8764  160.3650 O.3     1  UNL1       -0.3808
     27 C         138.8513  142.5240  158.7817 C.3     1  UNL1        0.1293
     28 N         138.2922  142.7586  157.4097 N.am    1  UNL1       -0.2549
     29 C         137.2367  142.0428  156.6201 C.2     1  UNL1        0.2298
     30 O         136.5373  140.8534  157.2084 O.2     1  UNL1       -0.2745
     31 C         136.8805  142.5165  155.2421 C.3     1  UNL1        0.0919
     32 C         137.5799  143.7059  154.6538 C.3     1  UNL1        0.0567
     33 C         138.6354  144.4217  155.4434 C.ar    1  UNL1        0.0730
     34 N         139.4863  145.6206  155.1132 N.ar    1  UNL1       -0.2446
     35 C         140.5153  146.2321  156.0172 C.ar    1  UNL1        0.1278
     36 C         140.7636  145.6460  157.3754 C.ar    1  UNL1        0.1586
     37 F         141.7927  146.2575  158.2794 F       1  UNL1       -0.2027
     38 C         139.9829  144.4485  157.8297 C.ar    1  UNL1        0.0473
     39 C         138.9916  143.9480  156.8213 C.ar    1  UNL1        0.0679
     40 H         139.4142  142.1313  160.4063 H       1  UNL1        0.2107
@<TRIPOS>BOND
     1    12    13    2
     2    13    14    1
     3    14    15    1
     4    15    16    1
     5    16    17   ar
     6    17    18   ar
     7    18    19   ar
     8    19    11    1
     9    11     9    1
    10     9     1    1
    11     1     2    1
    12     2     3    1
    13     3     4    1
    14     4    24    1
    15    24    25    1
    16    25    26    1
    17    25    27    1
    18    27    28    1
    19    28    29   am
    20    29    30    2
    21    29    31    1
    22    31    32    1
    23    32    33    1
    24    33    34   ar
    25    34    35   ar
    26    35    36   ar
    27    36    37    1
    28    36    38   ar
    29    38    39   ar
    30     4     5    1
    31     5     6    1
    32     4     7    1
    33     7     8    1
    34    19    20   ar
    35    20    21   ar
    36    21    22    1
    37    22    13   am
    38    21    16   ar
    39     6     1    1
    40     8     1    1
    41    38    25    1
    42    39    28    1
    43    39    33   ar
    44     9    10    1
    45    26    40    1
    46    22    23    1
