@<TRIPOS>MOLECULE
*****
 32 37 0 0 0
SMALL
GASTEIGER

@<TRIPOS>ATOM
      1 O         143.4913  140.6984  159.9756 O.2     1  UNL1       -0.2700
      2 C         142.9177  140.6388  161.3603 C.2     1  UNL1        0.2504
      3 N         143.8925  141.4241  162.1868 N.am    1  UNL1       -0.3003
      4 C         144.3696  142.0009  163.4867 C.3     1  UNL1        0.0974
      5 C         145.5574  142.8264  163.8835 C.3     1  UNL1        0.0234
      6 C         145.3788  142.4077  162.4543 C.3     1  UNL1        0.0234
      7 C         144.2394  142.2372  164.9622 C.3     1  UNL1        0.2247
      8 O         143.5319  142.0788  166.2754 O.3     1  UNL1       -0.4587
      9 C         142.4092  141.5620  167.1254 C.ar    1  UNL1        0.2224
     10 N         143.0707  142.2261  168.2964 N.ar    1  UNL1       -0.2080
     11 C         142.4515  142.1334  169.6594 C.ar    1  UNL1        0.1316
     12 C         141.1707  141.3766  169.8514 C.ar    1  UNL1        0.1592
     13 F         140.5514  141.2839  171.2145 F       1  UNL1       -0.2025
     14 C         140.5091  140.7125  168.6804 C.ar    1  UNL1        0.0332
     15 C         141.1284  140.8052  167.3173 C.ar    1  UNL1        0.0525
     16 C         139.9829  139.9818  166.8075 C.3     1  UNL1        0.1169
     17 C         139.4559  139.9554  168.2116 C.3     1  UNL1        0.0934
     18 N         138.1813  139.2277  168.5207 N.3     1  UNL1       -0.2944
     19 C         137.4336  138.5263  167.4256 C.3     1  UNL1        0.0904
     20 C         137.9606  138.5526  166.0216 C.3     1  UNL1        0.1095
     21 N         139.2353  139.2804  165.7124 N.pl3   1  UNL1       -0.2881
     22 C         139.0567  138.8617  164.2832 C.ar    1  UNL1        0.1352
     23 C         138.2454  138.0082  162.6658 C.ar    1  UNL1        0.0551
     24 C         138.5147  137.8603  161.1976 C.ar    1  UNL1        0.1050
     25 N         139.7341  138.4897  160.5917 N.ar    1  UNL1       -0.2104
     26 N         140.5413  138.7256  159.3496 N.ar    1  UNL1       -0.1619
     27 C         141.7367  139.5509  159.7235 C.ar    1  UNL1        0.1281
     28 C         141.6683  139.8251  161.1966 C.ar    1  UNL1        0.1099
     29 C         140.4306  139.1693  161.7332 C.ar    1  UNL1        0.1710
     30 N         139.4881  138.8216  162.8471 N.ar    1  UNL1       -0.2116
     31 H         144.5752  141.7098  161.5376 H       1  UNL1        0.1498
     32 H         137.5411  139.9126  168.9223 H       1  UNL1        0.1234
@<TRIPOS>BOND
     1     1     2    2
     2     2     3   am
     3     3     4    1
     4     4     5    1
     5     5     6    1
     6     4     7    1
     7     7     8    1
     8     8     9    1
     9     9    10   ar
    10    10    11   ar
    11    11    12   ar
    12    12    13    1
    13    12    14   ar
    14    14    15   ar
    15    15    16    1
    16    16    17    1
    17    17    18    1
    18    18    19    1
    19    19    20    1
    20    20    21    1
    21    21    22    1
    22    22    23   ar
    23    23    24   ar
    24    24    25   ar
    25    25    26   ar
    26    26    27   ar
    27    27    28   ar
    28    28    29   ar
    29    29    30   ar
    30    28     2    1
    31     6     4    1
    32    15     9   ar
    33    21    16    1
    34    30    22   ar
    35    29    25   ar
    36     3    31    1
    37    18    32    1
@<TRIPOS>MOLECULE
*****
 32 37 0 0 0
SMALL
GASTEIGER

@<TRIPOS>ATOM
      1 O         142.5100  140.6757  165.9015 O.2     1  UNL1       -0.2700
      2 C         141.9902  141.1134  164.5642 C.2     1  UNL1        0.2504
      3 N         142.7336  142.3869  164.2894 N.am    1  UNL1       -0.3003
      4 C         143.0579  143.5782  163.4375 C.3     1  UNL1        0.0974
      5 C         143.9905  144.7429  163.5916 C.3     1  UNL1        0.0234
      6 C         143.9106  143.6989  164.6657 C.3     1  UNL1        0.0234
      7 C         142.8888  144.4143  162.2037 C.3     1  UNL1        0.2247
      8 O         142.2651  144.7037  160.8706 O.3     1  UNL1       -0.4587
      9 C         141.3297  144.3801  159.7435 C.ar    1  UNL1        0.2224
     10 N         141.8072  145.6314  159.0682 N.ar    1  UNL1       -0.2080
     11 C         141.2519  146.0203  157.7302 C.ar    1  UNL1        0.1316
     12 C         140.2190  145.1578  157.0674 C.ar    1  UNL1        0.1592
     13 F         139.6637  145.5466  155.7293 F       1  UNL1       -0.2025
     14 C         139.7415  143.9064  157.7427 C.ar    1  UNL1        0.0332
     15 C         140.2968  143.5176  159.0808 C.ar    1  UNL1        0.0525
     16 C         139.4031  142.3137  159.0341 C.3     1  UNL1        0.1169
     17 C         138.9197  142.7995  157.6998 C.3     1  UNL1        0.0934
     18 N         137.8867  142.0160  156.9457 N.3     1  UNL1       -0.2944
     19 C         137.3369  140.7467  157.5259 C.3     1  UNL1        0.0904
     20 C         137.8202  140.2609  158.8601 C.3     1  UNL1        0.1095
     21 N         138.8533  141.0444  159.6143 N.pl3   1  UNL1       -0.2881
     22 C         138.7734  140.0004  160.6883 C.ar    1  UNL1        0.1352
     23 C         138.1957  138.3507  161.6617 C.ar    1  UNL1        0.0551
     24 C         138.4758  137.6263  162.9450 C.ar    1  UNL1        0.1050
     25 N         139.4777  138.1790  163.9149 N.ar    1  UNL1       -0.2104
     26 N         140.1781  138.0114  165.2307 N.ar    1  UNL1       -0.1619
     27 C         141.1177  139.1673  165.4062 C.ar    1  UNL1        0.1281
     28 C         140.9981  140.0493  164.1988 C.ar    1  UNL1        0.1099
     29 C         139.9846  139.4385  163.2772 C.ar    1  UNL1        0.1710
     30 N         139.1817  139.4208  162.0102 N.ar    1  UNL1       -0.2116
     31 H         143.3082  142.4998  165.0808 H       1  UNL1        0.1498
     32 H         138.3003  141.7733  156.0455 H       1  UNL1        0.1234
@<TRIPOS>BOND
     1     1     2    2
     2     2     3   am
     3     3     4    1
     4     4     5    1
     5     5     6    1
     6     4     7    1
     7     7     8    1
     8     8     9    1
     9     9    10   ar
    10    10    11   ar
    11    11    12   ar
    12    12    13    1
    13    12    14   ar
    14    14    15   ar
    15    15    16    1
    16    16    17    1
    17    17    18    1
    18    18    19    1
    19    19    20    1
    20    20    21    1
    21    21    22    1
    22    22    23   ar
    23    23    24   ar
    24    24    25   ar
    25    25    26   ar
    26    26    27   ar
    27    27    28   ar
    28    28    29   ar
    29    29    30   ar
    30    28     2    1
    31     6     4    1
    32    15     9   ar
    33    21    16    1
    34    30    22   ar
    35    29    25   ar
    36     3    31    1
    37    18    32    1
@<TRIPOS>MOLECULE
*****
 32 37 0 0 0
SMALL
GASTEIGER

@<TRIPOS>ATOM
      1 O         141.3538  140.8034  164.8203 O.2     1  UNL1       -0.2700
      2 C         141.6931  141.1778  163.4079 C.2     1  UNL1        0.2504
      3 N         142.4914  140.0101  162.9089 N.am    1  UNL1       -0.3003
      4 C         143.2693  139.2890  161.8482 C.3     1  UNL1        0.0974
      5 C         143.9782  137.9681  161.7966 C.3     1  UNL1        0.0234
      6 C         143.2794  138.3956  163.0531 C.3     1  UNL1        0.0234
      7 C         143.8484  139.1798  160.4688 C.3     1  UNL1        0.2247
      8 O         144.0962  139.7075  159.0867 O.3     1  UNL1       -0.4587
      9 C         143.9558  140.7512  158.0186 C.ar    1  UNL1        0.2224
     10 N         144.7614  139.8569  157.1236 N.ar    1  UNL1       -0.2080
     11 C         145.0707  140.2830  155.7191 C.ar    1  UNL1        0.1316
     12 C         144.5743  141.6036  155.2095 C.ar    1  UNL1        0.1592
     13 F         144.8835  142.0298  153.8050 F       1  UNL1       -0.2025
     14 C         143.7687  142.4980  156.1045 C.ar    1  UNL1        0.0332
     15 C         143.4595  142.0718  157.5091 C.ar    1  UNL1        0.0525
     16 C         142.7208  143.3668  157.6748 C.3     1  UNL1        0.1169
     17 C         143.0896  143.6887  156.2569 C.3     1  UNL1        0.0934
     18 N         142.6466  144.9833  155.6423 N.3     1  UNL1       -0.2944
     19 C         141.8349  145.9559  156.4455 C.3     1  UNL1        0.0904
     20 C         141.4662  145.6341  157.8633 C.3     1  UNL1        0.1095
     21 N         141.9092  144.3395  158.4780 N.pl3   1  UNL1       -0.2881
     22 C         141.2104  144.7670  159.7346 C.ar    1  UNL1        0.1352
     23 C         140.1440  145.8943  160.9975 C.ar    1  UNL1        0.0551
     24 C         139.6310  145.8552  162.4064 C.ar    1  UNL1        0.1050
     25 N         139.9206  144.6687  163.2773 N.ar    1  UNL1       -0.2104
     26 N         139.7487  144.0237  164.6207 N.ar    1  UNL1       -0.1619
     27 C         140.4511  142.6987  164.5919 C.ar    1  UNL1        0.1281
     28 C         141.0571  142.5248  163.2309 C.ar    1  UNL1        0.1099
     29 C         140.7293  143.7422  162.4184 C.ar    1  UNL1        0.1710
     30 N         140.7846  144.5515  161.1566 N.ar    1  UNL1       -0.2116
     31 H         142.5196  139.3975  163.6791 H       1  UNL1        0.1498
     32 H         142.0914  144.7443  154.8207 H       1  UNL1        0.1234
@<TRIPOS>BOND
     1     1     2    2
     2     2     3   am
     3     3     4    1
     4     4     5    1
     5     5     6    1
     6     4     7    1
     7     7     8    1
     8     8     9    1
     9     9    10   ar
    10    10    11   ar
    11    11    12   ar
    12    12    13    1
    13    12    14   ar
    14    14    15   ar
    15    15    16    1
    16    16    17    1
    17    17    18    1
    18    18    19    1
    19    19    20    1
    20    20    21    1
    21    21    22    1
    22    22    23   ar
    23    23    24   ar
    24    24    25   ar
    25    25    26   ar
    26    26    27   ar
    27    27    28   ar
    28    28    29   ar
    29    29    30   ar
    30    28     2    1
    31     6     4    1
    32    15     9   ar
    33    21    16    1
    34    30    22   ar
    35    29    25   ar
    36     3    31    1
    37    18    32    1
@<TRIPOS>MOLECULE
*****
 32 37 0 0 0
SMALL
GASTEIGER

@<TRIPOS>ATOM
      1 O         142.3433  140.2262  160.7533 O.2     1  UNL1       -0.2700
      2 C         141.8440  140.2509  162.1676 C.2     1  UNL1        0.2504
      3 N         140.6587  139.3318  162.1459 N.am    1  UNL1       -0.3003
      4 C         139.5060  138.6351  162.8060 C.3     1  UNL1        0.0974
      5 C         138.4521  137.6836  162.3224 C.3     1  UNL1        0.0234
      6 C         139.4865  138.2045  161.3693 C.3     1  UNL1        0.0234
      7 C         138.6499  138.3203  163.9968 C.3     1  UNL1        0.2247
      8 O         138.2866  138.4595  165.4455 O.3     1  UNL1       -0.4587
      9 C         138.4992  139.0209  166.8201 C.ar    1  UNL1        0.2224
     10 N         137.3046  138.2290  167.2624 N.ar    1  UNL1       -0.2080
     11 C         136.8499  138.2918  168.6904 C.ar    1  UNL1        0.1316
     12 C         137.5898  139.1468  169.6762 C.ar    1  UNL1        0.1592
     13 F         137.1352  139.2097  171.1042 F       1  UNL1       -0.2025
     14 C         138.7845  139.9388  169.2338 C.ar    1  UNL1        0.0332
     15 C         139.2391  139.8758  167.8058 C.ar    1  UNL1        0.0525
     16 C         140.3368  140.8284  168.1768 C.3     1  UNL1        0.1169
     17 C         139.7937  140.8147  169.5750 C.3     1  UNL1        0.0934
     18 N         140.4546  141.6329  170.6443 N.3     1  UNL1       -0.2944
     19 C         141.6586  142.4650  170.3155 C.3     1  UNL1        0.0904
     20 C         142.2017  142.4788  168.9174 C.3     1  UNL1        0.1095
     21 N         141.5408  141.6605  167.8480 N.pl3   1  UNL1       -0.2881
     22 C         142.5753  142.1814  166.8949 C.ar    1  UNL1        0.1352
     23 C         144.1563  143.2027  166.2166 C.ar    1  UNL1        0.0551
     24 C         144.9139  143.4168  164.9399 C.ar    1  UNL1        0.1050
     25 N         144.4801  142.7196  163.6845 N.ar    1  UNL1       -0.2104
     26 N         144.7308  142.4901  162.2235 N.ar    1  UNL1       -0.1619
     27 C         143.6864  141.5396  161.7178 C.ar    1  UNL1        0.1281
     28 C         142.7903  141.1817  162.8662 C.ar    1  UNL1        0.1099
     29 C         143.2808  141.9110  164.0817 C.ar    1  UNL1        0.1710
     30 N         143.2032  142.2718  165.5356 N.ar    1  UNL1       -0.2116
     31 H         140.6141  139.0270  161.2108 H       1  UNL1        0.1498
     32 H         140.7367  140.9843  171.3793 H       1  UNL1        0.1234
@<TRIPOS>BOND
     1     1     2    2
     2     2     3   am
     3     3     4    1
     4     4     5    1
     5     5     6    1
     6     4     7    1
     7     7     8    1
     8     8     9    1
     9     9    10   ar
    10    10    11   ar
    11    11    12   ar
    12    12    13    1
    13    12    14   ar
    14    14    15   ar
    15    15    16    1
    16    16    17    1
    17    17    18    1
    18    18    19    1
    19    19    20    1
    20    20    21    1
    21    21    22    1
    22    22    23   ar
    23    23    24   ar
    24    24    25   ar
    25    25    26   ar
    26    26    27   ar
    27    27    28   ar
    28    28    29   ar
    29    29    30   ar
    30    28     2    1
    31     6     4    1
    32    15     9   ar
    33    21    16    1
    34    30    22   ar
    35    29    25   ar
    36     3    31    1
    37    18    32    1
@<TRIPOS>MOLECULE
*****
 32 37 0 0 0
SMALL
GASTEIGER

@<TRIPOS>ATOM
      1 O         140.2518  142.6560  165.2456 O.2     1  UNL1       -0.2700
      2 C         140.8297  142.2224  163.9311 C.2     1  UNL1        0.2504
      3 N         141.9636  143.1779  163.7047 N.am    1  UNL1       -0.3003
      4 C         143.1143  143.7071  162.9010 C.3     1  UNL1        0.0974
      5 C         144.0898  144.8295  163.0973 C.3     1  UNL1        0.0234
      6 C         143.0317  144.5666  164.1276 C.3     1  UNL1        0.0234
      7 C         144.0182  143.6885  161.7041 C.3     1  UNL1        0.2247
      8 O         144.4683  143.1265  160.3882 O.3     1  UNL1       -0.4587
      9 C         144.3614  142.1499  159.2547 C.ar    1  UNL1        0.2224
     10 N         145.5369  142.8402  158.6289 N.ar    1  UNL1       -0.2080
     11 C         146.0730  142.3631  157.3119 C.ar    1  UNL1        0.1316
     12 C         145.4337  141.1955  156.6205 C.ar    1  UNL1        0.1592
     13 F         145.9698  140.7182  155.3033 F       1  UNL1       -0.2025
     14 C         144.2582  140.5051  157.2463 C.ar    1  UNL1        0.0332
     15 C         143.7221  140.9823  158.5634 C.ar    1  UNL1        0.0525
     16 C         142.6967  139.8912  158.4725 C.3     1  UNL1        0.1169
     17 C         143.3155  139.5019  157.1627 C.3     1  UNL1        0.0934
     18 N         142.7577  138.3480  156.3834 N.3     1  UNL1       -0.2944
     19 C         141.5812  137.5834  156.9139 C.3     1  UNL1        0.0904
     20 C         140.9625  137.9727  158.2236 C.3     1  UNL1        0.1095
     21 N         141.5203  139.1266  159.0030 N.pl3   1  UNL1       -0.2881
     22 C         140.4622  138.8637  160.0332 C.ar    1  UNL1        0.1352
     23 C         138.9000  138.0045  160.9409 C.ar    1  UNL1        0.0551
     24 C         138.0844  138.1519  162.1911 C.ar    1  UNL1        0.1050
     25 N         138.4115  139.2344  163.1767 N.ar    1  UNL1       -0.2104
     26 N         138.0684  139.8932  164.4799 N.ar    1  UNL1       -0.1619
     27 C         139.0332  141.0210  164.6971 C.ar    1  UNL1        0.1281
     28 C         139.9725  141.0592  163.5283 C.ar    1  UNL1        0.1099
     29 C         139.5882  139.9551  162.5886 C.ar    1  UNL1        0.1710
     30 N         139.7650  139.1627  161.3272 N.ar    1  UNL1       -0.2116
     31 H         141.9405  143.7627  164.4963 H       1  UNL1        0.1498
     32 H         143.5169  137.6768  156.2671 H       1  UNL1        0.1234
@<TRIPOS>BOND
     1     1     2    2
     2     2     3   am
     3     3     4    1
     4     4     5    1
     5     5     6    1
     6     4     7    1
     7     7     8    1
     8     8     9    1
     9     9    10   ar
    10    10    11   ar
    11    11    12   ar
    12    12    13    1
    13    12    14   ar
    14    14    15   ar
    15    15    16    1
    16    16    17    1
    17    17    18    1
    18    18    19    1
    19    19    20    1
    20    20    21    1
    21    21    22    1
    22    22    23   ar
    23    23    24   ar
    24    24    25   ar
    25    25    26   ar
    26    26    27   ar
    27    27    28   ar
    28    28    29   ar
    29    29    30   ar
    30    28     2    1
    31     6     4    1
    32    15     9   ar
    33    21    16    1
    34    30    22   ar
    35    29    25   ar
    36     3    31    1
    37    18    32    1
@<TRIPOS>MOLECULE
*****
 32 37 0 0 0
SMALL
GASTEIGER

@<TRIPOS>ATOM
      1 O         141.3635  139.3944  165.6273 O.2     1  UNL1       -0.2700
      2 C         140.9948  140.0452  164.3271 C.2     1  UNL1        0.2504
      3 N         139.9757  139.1163  163.7369 N.am    1  UNL1       -0.3003
      4 C         139.0135  138.7116  162.6596 C.3     1  UNL1        0.0974
      5 C         138.0876  137.5456  162.4778 C.3     1  UNL1        0.0234
      6 C         138.9356  137.6446  163.7111 C.3     1  UNL1        0.0234
      7 C         138.3288  138.9239  161.3420 C.3     1  UNL1        0.2247
      8 O         138.0784  139.7047  160.0859 O.3     1  UNL1       -0.4587
      9 C         138.3196  140.8750  159.1791 C.ar    1  UNL1        0.2224
     10 N         137.3122  140.2786  158.2414 N.ar    1  UNL1       -0.2080
     11 C         136.9824  140.9738  156.9538 C.ar    1  UNL1        0.1316
     12 C         137.6600  142.2656  156.6041 C.ar    1  UNL1        0.1592
     13 F         137.3302  142.9609  155.3165 F       1  UNL1       -0.2025
     14 C         138.6674  142.8620  157.5419 C.ar    1  UNL1        0.0332
     15 C         138.9972  142.1667  158.8294 C.ar    1  UNL1        0.0525
     16 C         139.9559  143.2839  159.1168 C.3     1  UNL1        0.1169
     17 C         139.5489  143.8893  157.8060 C.3     1  UNL1        0.0934
     18 N         140.1622  145.1813  157.3541 N.3     1  UNL1       -0.2944
     19 C         141.1825  145.8681  158.2128 C.3     1  UNL1        0.0904
     20 C         141.5895  145.2629  159.5234 C.3     1  UNL1        0.1095
     21 N         140.9762  143.9707  159.9755 N.pl3   1  UNL1       -0.2881
     22 C         141.8243  144.0698  161.2087 C.ar    1  UNL1        0.1352
     23 C         143.1536  144.7911  162.5184 C.ar    1  UNL1        0.0551
     24 C         143.7500  144.4400  163.8492 C.ar    1  UNL1        0.1050
     25 N         143.3239  143.1866  164.5547 N.ar    1  UNL1       -0.2104
     26 N         143.4771  142.3101  165.7623 N.ar    1  UNL1       -0.1619
     27 C         142.5584  141.1353  165.6017 C.ar    1  UNL1        0.1281
     28 C         141.8375  141.2858  164.2950 C.ar    1  UNL1        0.1099
     29 C         142.3106  142.5536  163.6479 C.ar    1  UNL1        0.1710
     30 N         142.3058  143.5583  162.5341 N.ar    1  UNL1       -0.2116
     31 H         139.8975  138.3972  164.4048 H       1  UNL1        0.1498
     32 H         139.3955  145.8412  157.2230 H       1  UNL1        0.1234
@<TRIPOS>BOND
     1     1     2    2
     2     2     3   am
     3     3     4    1
     4     4     5    1
     5     5     6    1
     6     4     7    1
     7     7     8    1
     8     8     9    1
     9     9    10   ar
    10    10    11   ar
    11    11    12   ar
    12    12    13    1
    13    12    14   ar
    14    14    15   ar
    15    15    16    1
    16    16    17    1
    17    17    18    1
    18    18    19    1
    19    19    20    1
    20    20    21    1
    21    21    22    1
    22    22    23   ar
    23    23    24   ar
    24    24    25   ar
    25    25    26   ar
    26    26    27   ar
    27    27    28   ar
    28    28    29   ar
    29    29    30   ar
    30    28     2    1
    31     6     4    1
    32    15     9   ar
    33    21    16    1
    34    30    22   ar
    35    29    25   ar
    36     3    31    1
    37    18    32    1
@<TRIPOS>MOLECULE
*****
 32 37 0 0 0
SMALL
GASTEIGER

@<TRIPOS>ATOM
      1 O         139.6219  141.3707  165.6883 O.2     1  UNL1       -0.2700
      2 C         140.0685  141.2642  164.2603 C.2     1  UNL1        0.2504
      3 N         140.4064  139.8119  164.0973 N.am    1  UNL1       -0.3003
      4 C         140.8807  138.6412  163.2881 C.3     1  UNL1        0.0974
      5 C         141.0820  137.1851  163.5865 C.3     1  UNL1        0.0234
      6 C         140.5793  138.1075  164.6571 C.3     1  UNL1        0.0234
      7 C         141.3827  138.0205  162.0181 C.3     1  UNL1        0.2247
      8 O         141.7973  138.0919  160.5784 O.3     1  UNL1       -0.4587
      9 C         142.0296  138.8390  159.2985 C.ar    1  UNL1        0.2224
     10 N         142.4695  137.5401  158.6909 N.ar    1  UNL1       -0.2080
     11 C         142.9061  137.4927  157.2567 C.ar    1  UNL1        0.1316
     12 C         142.9029  138.7444  156.4300 C.ar    1  UNL1        0.1592
     13 F         143.3395  138.6972  154.9958 F       1  UNL1       -0.2025
     14 C         142.4630  140.0434  157.0377 C.ar    1  UNL1        0.0332
     15 C         142.0264  140.0906  158.4720 C.ar    1  UNL1        0.0525
     16 C         141.7884  141.5602  158.2879 C.3     1  UNL1        0.1169
     17 C         142.2442  141.3946  156.8684 C.3     1  UNL1        0.0934
     18 N         142.2817  142.5796  155.9497 N.3     1  UNL1       -0.2944
     19 C         141.8635  143.9303  156.4503 C.3     1  UNL1        0.0904
     20 C         141.4077  144.0960  157.8697 C.3     1  UNL1        0.1095
     21 N         141.3701  142.9109  158.7885 N.pl3   1  UNL1       -0.2881
     22 C         140.8674  143.8333  159.8592 C.ar    1  UNL1        0.1352
     23 C         140.2655  145.5195  160.7520 C.ar    1  UNL1        0.0551
     24 C         139.7736  145.9897  162.0888 C.ar    1  UNL1        0.1050
     25 N         139.6307  145.0154  163.2204 N.ar    1  UNL1       -0.2104
     26 N         139.2460  144.8024  164.6545 N.ar    1  UNL1       -0.1619
     27 C         139.4398  143.3500  164.9755 C.ar    1  UNL1        0.1281
     28 C         139.9443  142.6655  163.7398 C.ar    1  UNL1        0.1099
     29 C         140.0623  143.6947  162.6552 C.ar    1  UNL1        0.1710
     30 N         140.3954  144.1162  161.2546 N.ar    1  UNL1       -0.2116
     31 H         140.2195  139.4256  164.9833 H       1  UNL1        0.1498
     32 H         141.6767  142.3584  155.1589 H       1  UNL1        0.1234
@<TRIPOS>BOND
     1     1     2    2
     2     2     3   am
     3     3     4    1
     4     4     5    1
     5     5     6    1
     6     4     7    1
     7     7     8    1
     8     8     9    1
     9     9    10   ar
    10    10    11   ar
    11    11    12   ar
    12    12    13    1
    13    12    14   ar
    14    14    15   ar
    15    15    16    1
    16    16    17    1
    17    17    18    1
    18    18    19    1
    19    19    20    1
    20    20    21    1
    21    21    22    1
    22    22    23   ar
    23    23    24   ar
    24    24    25   ar
    25    25    26   ar
    26    26    27   ar
    27    27    28   ar
    28    28    29   ar
    29    29    30   ar
    30    28     2    1
    31     6     4    1
    32    15     9   ar
    33    21    16    1
    34    30    22   ar
    35    29    25   ar
    36     3    31    1
    37    18    32    1
@<TRIPOS>MOLECULE
*****
 32 37 0 0 0
SMALL
GASTEIGER

@<TRIPOS>ATOM
      1 O         143.5503  144.3003  153.1777 O.2     1  UNL1       -0.2700
      2 C         143.3454  144.2203  154.6615 C.2     1  UNL1        0.2504
      3 N         144.4283  143.2911  155.1239 N.am    1  UNL1       -0.3003
      4 C         145.1651  142.5364  156.1905 C.3     1  UNL1        0.0974
      5 C         146.3436  141.6086  156.1812 C.3     1  UNL1        0.0234
      6 C         145.8500  142.2068  154.8973 C.3     1  UNL1        0.0234
      7 C         145.3869  142.1292  157.6170 C.3     1  UNL1        0.2247
      8 O         145.0429  142.1627  159.0767 O.3     1  UNL1       -0.4587
      9 C         144.2120  142.6294  160.2351 C.ar    1  UNL1        0.2224
     10 N         145.0878  141.7944  161.1215 N.ar    1  UNL1       -0.2080
     11 C         144.8361  141.7522  162.5995 C.ar    1  UNL1        0.1316
     12 C         143.7085  142.5449  163.1913 C.ar    1  UNL1        0.1592
     13 F         143.4568  142.5028  164.6694 F       1  UNL1       -0.2025
     14 C         142.8327  143.3799  162.3049 C.ar    1  UNL1        0.0332
     15 C         143.0844  143.4221  160.8268 C.ar    1  UNL1        0.0525
     16 C         141.9186  144.3595  160.7163 C.3     1  UNL1        0.1169
     17 C         141.7607  144.2418  162.2034 C.3     1  UNL1        0.0934
     18 N         140.6659  144.9912  162.9029 N.3     1  UNL1       -0.2944
     19 C         139.7288  145.8584  162.1156 C.3     1  UNL1        0.0904
     20 C         139.8866  145.9761  160.6286 C.3     1  UNL1        0.1095
     21 N         140.9815  145.2266  159.9289 N.pl3   1  UNL1       -0.2881
     22 C         140.4879  145.8249  158.6451 C.ar    1  UNL1        0.1352
     23 C         139.3718  146.9097  157.3879 C.ar    1  UNL1        0.0551
     24 C         139.2791  147.2213  155.9236 C.ar    1  UNL1        0.1050
     25 N         140.2548  146.6083  154.9631 N.ar    1  UNL1       -0.2104
     26 N         140.7065  146.4841  153.5381 N.ar    1  UNL1       -0.1619
     27 C         141.8867  145.5589  153.5049 C.ar    1  UNL1        0.1281
     28 C         142.1643  145.1112  154.9094 C.ar    1  UNL1        0.1099
     29 C         141.1559  145.7597  155.8105 C.ar    1  UNL1        0.1710
     30 N         140.5508  146.0173  157.1588 N.ar    1  UNL1       -0.2116
     31 H         144.9030  143.0517  154.2953 H       1  UNL1        0.1498
     32 H         141.1154  145.5937  163.5924 H       1  UNL1        0.1234
@<TRIPOS>BOND
     1     1     2    2
     2     2     3   am
     3     3     4    1
     4     4     5    1
     5     5     6    1
     6     4     7    1
     7     7     8    1
     8     8     9    1
     9     9    10   ar
    10    10    11   ar
    11    11    12   ar
    12    12    13    1
    13    12    14   ar
    14    14    15   ar
    15    15    16    1
    16    16    17    1
    17    17    18    1
    18    18    19    1
    19    19    20    1
    20    20    21    1
    21    21    22    1
    22    22    23   ar
    23    23    24   ar
    24    24    25   ar
    25    25    26   ar
    26    26    27   ar
    27    27    28   ar
    28    28    29   ar
    29    29    30   ar
    30    28     2    1
    31     6     4    1
    32    15     9   ar
    33    21    16    1
    34    30    22   ar
    35    29    25   ar
    36     3    31    1
    37    18    32    1
@<TRIPOS>MOLECULE
*****
 32 37 0 0 0
SMALL
GASTEIGER

@<TRIPOS>ATOM
      1 O         139.0255  142.7495  154.6146 O.2     1  UNL1       -0.2700
      2 C         139.8490  142.4379  155.8290 C.2     1  UNL1        0.2504
      3 N         140.0670  143.7773  156.4682 N.am    1  UNL1       -0.3003
      4 C         140.6291  144.6608  157.5422 C.3     1  UNL1        0.0974
      5 C         140.5843  146.1374  157.8022 C.3     1  UNL1        0.0234
      6 C         139.8943  145.5665  156.5989 C.3     1  UNL1        0.0234
      7 C         141.4067  144.8860  158.8050 C.3     1  UNL1        0.2247
      8 O         142.2216  144.4012  159.9673 O.3     1  UNL1       -0.4587
      9 C         142.8872  143.3176  160.7628 C.ar    1  UNL1        0.2224
     10 N         143.3454  144.3819  161.7152 N.ar    1  UNL1       -0.2080
     11 C         144.1674  144.0121  162.9142 C.ar    1  UNL1        0.1316
     12 C         144.5311  142.5779  163.1608 C.ar    1  UNL1        0.1592
     13 F         145.3531  142.2080  164.3598 F       1  UNL1       -0.2025
     14 C         144.0728  141.5135  162.2083 C.ar    1  UNL1        0.0332
     15 C         143.2508  141.8835  161.0093 C.ar    1  UNL1        0.0525
     16 C         143.2294  140.4271  160.6504 C.3     1  UNL1        0.1169
     17 C         144.0531  140.1745  161.8783 C.3     1  UNL1        0.0934
     18 N         144.4750  138.7773  162.2239 N.3     1  UNL1       -0.2944
     19 C         144.0733  137.6326  161.3417 C.3     1  UNL1        0.0904
     20 C         143.2496  137.8851  160.1139 C.3     1  UNL1        0.1095
     21 N         142.8277  139.2824  159.7682 N.pl3   1  UNL1       -0.2881
     22 C         142.1377  138.7116  158.5648 C.ar    1  UNL1        0.1352
     23 C         141.4835  137.3600  157.2427 C.ar    1  UNL1        0.0551
     24 C         140.6808  137.2980  155.9771 C.ar    1  UNL1        0.1050
     25 N         140.1193  138.5556  155.3827 N.ar    1  UNL1       -0.2104
     26 N         139.3198  139.1739  154.2743 N.ar    1  UNL1       -0.1619
     27 C         139.2617  140.6535  154.5144 C.ar    1  UNL1        0.1281
     28 C         140.0253  140.9494  155.7711 C.ar    1  UNL1        0.1099
     29 C         140.5553  139.6529  156.3077 C.ar    1  UNL1        0.1710
     30 N         141.3177  138.8453  157.3160 N.ar    1  UNL1       -0.2116
     31 H         139.5950  144.4025  155.8719 H       1  UNL1        0.1498
     32 H         144.1024  138.5784  163.1524 H       1  UNL1        0.1234
@<TRIPOS>BOND
     1     1     2    2
     2     2     3   am
     3     3     4    1
     4     4     5    1
     5     5     6    1
     6     4     7    1
     7     7     8    1
     8     8     9    1
     9     9    10   ar
    10    10    11   ar
    11    11    12   ar
    12    12    13    1
    13    12    14   ar
    14    14    15   ar
    15    15    16    1
    16    16    17    1
    17    17    18    1
    18    18    19    1
    19    19    20    1
    20    20    21    1
    21    21    22    1
    22    22    23   ar
    23    23    24   ar
    24    24    25   ar
    25    25    26   ar
    26    26    27   ar
    27    27    28   ar
    28    28    29   ar
    29    29    30   ar
    30    28     2    1
    31     6     4    1
    32    15     9   ar
    33    21    16    1
    34    30    22   ar
    35    29    25   ar
    36     3    31    1
    37    18    32    1
