@<TRIPOS>MOLECULE
*****
 41 46 0 0 0
SMALL
GASTEIGER

@<TRIPOS>ATOM
      1 C         140.1317  141.9358  169.3793 C.ar    1  UNL1        0.0769
      2 C         140.8772  142.8356  168.4388 C.ar    1  UNL1        0.0065
      3 C         140.9554  142.4961  166.9798 C.ar    1  UNL1        0.0016
      4 C         140.2881  141.2569  166.4613 C.ar    1  UNL1        0.0191
      5 C         139.5426  140.3571  167.4019 C.ar    1  UNL1        0.0509
      6 C         139.4645  140.6965  168.8608 C.ar    1  UNL1        0.0211
      7 N         138.9887  139.2121  166.6067 N.am    1  UNL1       -0.2803
      8 C         139.3919  139.4043  165.1747 C.2     1  UNL1        0.2507
      9 O         139.0517  138.4928  164.0330 O.2     1  UNL1       -0.2698
     10 C         140.1949  140.6680  165.0849 C.2     1  UNL1        0.0682
     11 C         140.7988  141.2422  163.8377 C.2     1  UNL1        0.0527
     12 H         138.4544  138.4655  166.9622 H       1  UNL1        0.1552
     13 C         141.5804  142.5208  163.9026 C.ar    1  UNL1        0.0136
     14 C         143.0561  142.4851  164.1688 C.ar    1  UNL1        0.0012
     15 C         143.8377  143.7638  164.2337 C.ar    1  UNL1        0.0000
     16 C         143.1435  145.0782  164.0325 C.ar    1  UNL1        0.0000
     17 C         141.6677  145.1139  163.7663 C.ar    1  UNL1        0.0000
     18 C         140.8862  143.8352  163.7014 C.ar    1  UNL1        0.0012
     19 C         140.0536  142.2752  170.8383 C.2     1  UNL1        0.3414
     20 O         139.1123  143.3434  171.3105 O.2     1  UNL1       -0.2449
     21 C         142.0609  140.7049  171.3430 C.3     1  UNL1        0.2560
     22 O         140.9168  141.5466  171.8252 O.3     1  UNL1       -0.4413
     23 N         140.6211  140.5377  162.5253 N.pl3   1  UNL1       -0.3124
     24 H         139.8728  139.9101  162.4009 H       1  UNL1        0.1522
     25 C         141.5834  140.7894  161.4026 C.ar    1  UNL1        0.0495
     26 C         142.6301  139.7682  161.0688 C.ar    1  UNL1        0.0144
     27 C         143.5924  140.0200  159.9460 C.ar    1  UNL1       -0.0017
     28 C         143.5081  141.2930  159.1571 C.ar    1  UNL1       -0.0067
     29 C         142.4614  142.3141  159.4910 C.ar    1  UNL1        0.0512
     30 C         141.4990  142.0624  160.6137 C.ar    1  UNL1        0.0292
     31 N         142.6200  143.4670  158.5444 N.am    1  UNL1       -0.2569
     32 C         141.7811  144.7103  158.5209 C.2     1  UNL1        0.2542
     33 O         140.6641  144.8802  159.5075 O.2     1  UNL1       -0.2724
     34 C         143.7647  143.1582  157.6257 C.3     1  UNL1        0.1030
     35 C         144.3136  141.8146  158.0043 C.3     1  UNL1        0.0495
     36 C         142.0593  145.7837  157.5107 C.3     1  UNL1        0.2124
     37 N         141.0174  146.1450  156.4940 N.ar    1  UNL1       -0.2400
     38 C         141.1314  145.9583  155.0100 C.ar    1  UNL1        0.0973
     39 C         139.8629  146.4544  154.3816 C.ar    1  UNL1        0.0427
     40 C         138.9649  146.9477  155.4773 C.ar    1  UNL1        0.1217
     41 N         139.6784  146.7564  156.7828 N.ar    1  UNL1       -0.1672
@<TRIPOS>BOND
     1    21    22    1
     2    22    19    1
     3    19    20    2
     4    19     1    1
     5     1     2   ar
     6     2     3   ar
     7     3     4   ar
     8     4     5   ar
     9     5     6   ar
    10     5     7    1
    11     7     8   am
    12     8     9    2
    13     8    10    1
    14    10    11    2
    15    11    23    1
    16    23    25    1
    17    25    26   ar
    18    26    27   ar
    19    27    28   ar
    20    28    29   ar
    21    29    30   ar
    22    29    31    1
    23    31    32   am
    24    32    33    2
    25    32    36    1
    26    36    37    1
    27    37    38   ar
    28    38    39   ar
    29    39    40   ar
    30    40    41   ar
    31    31    34    1
    32    34    35    1
    33    11    13    1
    34    13    14   ar
    35    14    15   ar
    36    15    16   ar
    37    16    17   ar
    38    17    18   ar
    39     6     1   ar
    40    30    25   ar
    41    41    37   ar
    42    18    13   ar
    43    10     4    1
    44    35    28    1
    45     7    12    1
    46    23    24    1
@<TRIPOS>MOLECULE
*****
 41 46 0 0 0
SMALL
GASTEIGER

@<TRIPOS>ATOM
      1 C         140.4413  141.6722  169.3244 C.ar    1  UNL1        0.0769
      2 C         141.1534  142.5623  168.3495 C.ar    1  UNL1        0.0065
      3 C         141.0487  142.2971  166.8769 C.ar    1  UNL1        0.0016
      4 C         140.2318  141.1417  166.3791 C.ar    1  UNL1        0.0191
      5 C         139.5197  140.2516  167.3540 C.ar    1  UNL1        0.0509
      6 C         139.6244  140.5168  168.8267 C.ar    1  UNL1        0.0211
      7 N         138.7935  139.1964  166.5734 N.am    1  UNL1       -0.2803
      8 C         139.0569  139.4344  165.1160 C.2     1  UNL1        0.2507
      9 O         138.5248  138.6142  163.9784 O.2     1  UNL1       -0.2698
     10 C         139.9458  140.6367  164.9960 C.2     1  UNL1        0.0682
     11 C         140.4587  141.2298  163.7173 C.2     1  UNL1        0.0527
     12 H         138.2411  138.4744  166.9512 H       1  UNL1        0.1552
     13 C         141.3440  142.4401  163.7539 C.ar    1  UNL1        0.0136
     14 C         140.7382  143.8107  163.8220 C.ar    1  UNL1        0.0012
     15 C         141.6236  145.0211  163.8587 C.ar    1  UNL1        0.0000
     16 C         143.1147  144.8608  163.8272 C.ar    1  UNL1        0.0000
     17 C         143.7204  143.4902  163.7591 C.ar    1  UNL1        0.0000
     18 C         142.8351  142.2800  163.7224 C.ar    1  UNL1        0.0012
     19 C         140.5460  141.9374  170.7971 C.2     1  UNL1        0.3414
     20 O         139.5839  142.8781  171.4600 O.2     1  UNL1       -0.2449
     21 C         142.5775  140.3245  170.9431 C.3     1  UNL1        0.2560
     22 O         141.6128  141.2620  171.6068 O.3     1  UNL1       -0.4413
     23 N         140.0863  140.6126  162.4018 N.pl3   1  UNL1       -0.3124
     24 H         139.7087  139.7038  162.3738 H       1  UNL1        0.1522
     25 C         140.2893  141.3800  161.1291 C.ar    1  UNL1        0.0495
     26 C         139.4118  142.5549  160.8136 C.ar    1  UNL1        0.0144
     27 C         139.6147  143.3223  159.5408 C.ar    1  UNL1       -0.0017
     28 C         140.6952  142.9148  158.5835 C.ar    1  UNL1       -0.0067
     29 C         141.5727  141.7399  158.8990 C.ar    1  UNL1        0.0512
     30 C         141.3698  140.9725  160.1717 C.ar    1  UNL1        0.0292
     31 N         142.5486  141.5745  157.7719 N.am    1  UNL1       -0.2569
     32 C         143.6122  140.5212  157.6741 C.2     1  UNL1        0.2542
     33 O         143.7685  139.5091  158.7700 O.2     1  UNL1       -0.2724
     34 C         142.2742  142.6471  156.7599 C.3     1  UNL1        0.1030
     35 C         141.1288  143.4755  157.2615 C.3     1  UNL1        0.0495
     36 C         144.5195  140.4802  156.4802 C.3     1  UNL1        0.2124
     37 N         145.7689  141.3098  156.4589 N.ar    1  UNL1       -0.2400
     38 C         146.8463  141.2546  155.4167 C.ar    1  UNL1        0.0973
     39 C         147.9037  142.2510  155.7897 C.ar    1  UNL1        0.0427
     40 C         147.4797  142.9221  157.0625 C.ar    1  UNL1        0.1217
     41 N         146.1604  142.3404  157.4760 N.ar    1  UNL1       -0.1672
@<TRIPOS>BOND
     1    21    22    1
     2    22    19    1
     3    19    20    2
     4    19     1    1
     5     1     2   ar
     6     2     3   ar
     7     3     4   ar
     8     4     5   ar
     9     5     6   ar
    10     5     7    1
    11     7     8   am
    12     8     9    2
    13     8    10    1
    14    10    11    2
    15    11    23    1
    16    23    25    1
    17    25    26   ar
    18    26    27   ar
    19    27    28   ar
    20    28    29   ar
    21    29    30   ar
    22    29    31    1
    23    31    32   am
    24    32    33    2
    25    32    36    1
    26    36    37    1
    27    37    38   ar
    28    38    39   ar
    29    39    40   ar
    30    40    41   ar
    31    31    34    1
    32    34    35    1
    33    11    13    1
    34    13    14   ar
    35    14    15   ar
    36    15    16   ar
    37    16    17   ar
    38    17    18   ar
    39     6     1   ar
    40    30    25   ar
    41    41    37   ar
    42    18    13   ar
    43    10     4    1
    44    35    28    1
    45     7    12    1
    46    23    24    1
@<TRIPOS>MOLECULE
*****
 41 46 0 0 0
SMALL
GASTEIGER

@<TRIPOS>ATOM
      1 C         140.9662  141.7056  169.4676 C.ar    1  UNL1        0.0769
      2 C         142.0301  141.7169  168.4103 C.ar    1  UNL1        0.0065
      3 C         141.8696  140.8800  167.1759 C.ar    1  UNL1        0.0016
      4 C         140.6452  140.0318  166.9987 C.ar    1  UNL1        0.0191
      5 C         139.5813  140.0205  168.0560 C.ar    1  UNL1        0.0509
      6 C         139.7418  140.8574  169.2905 C.ar    1  UNL1        0.0211
      7 N         138.4920  139.0917  167.6077 N.am    1  UNL1       -0.2803
      8 C         138.8828  138.5291  166.2733 C.2     1  UNL1        0.2507
      9 O         138.0832  137.5562  165.4582 O.2     1  UNL1       -0.2698
     10 C         140.2135  139.1101  165.8969 C.2     1  UNL1        0.0682
     11 C         140.9783  138.8202  164.6395 C.2     1  UNL1        0.0527
     12 H         137.6657  138.8874  168.1024 H       1  UNL1        0.1552
     13 C         142.3040  139.4796  164.3991 C.ar    1  UNL1        0.0136
     14 C         143.5703  138.7920  164.8159 C.ar    1  UNL1        0.0012
     15 C         144.8960  139.4514  164.5754 C.ar    1  UNL1        0.0000
     16 C         144.9553  140.7985  163.9181 C.ar    1  UNL1        0.0000
     17 C         143.6891  141.4860  163.5013 C.ar    1  UNL1        0.0000
     18 C         142.3634  140.8266  163.7418 C.ar    1  UNL1        0.0012
     19 C         141.1266  142.5425  170.7021 C.2     1  UNL1        0.3414
     20 O         140.4362  142.1446  171.9729 O.2     1  UNL1       -0.2449
     21 C         143.4443  143.6864  170.9660 C.3     1  UNL1        0.2560
     22 O         141.9775  143.7772  170.6658 O.3     1  UNL1       -0.4413
     23 N         140.4175  137.8709  163.6225 N.pl3   1  UNL1       -0.3124
     24 H         140.3661  136.9085  163.8231 H       1  UNL1        0.1522
     25 C         139.9348  138.3881  162.2998 C.ar    1  UNL1        0.0495
     26 C         138.5866  139.0370  162.1949 C.ar    1  UNL1        0.0144
     27 C         138.1039  139.5541  160.8722 C.ar    1  UNL1       -0.0017
     28 C         138.9696  139.4224  159.6543 C.ar    1  UNL1       -0.0067
     29 C         140.3179  138.7736  159.7592 C.ar    1  UNL1        0.0512
     30 C         140.8005  138.2564  161.0819 C.ar    1  UNL1        0.0292
     31 N         140.9449  138.7847  158.3965 N.am    1  UNL1       -0.2569
     32 C         142.2956  138.2363  158.0430 C.2     1  UNL1        0.2542
     33 O         143.1496  137.6052  159.1024 O.2     1  UNL1       -0.2724
     34 C         139.9841  139.4404  157.4495 C.3     1  UNL1        0.1030
     35 C         138.7633  139.8346  158.2269 C.3     1  UNL1        0.0495
     36 C         142.7923  138.3190  156.6300 C.3     1  UNL1        0.2124
     37 N         142.8304  137.0872  155.7751 N.ar    1  UNL1       -0.2400
     38 C         143.6367  135.8514  156.0447 C.ar    1  UNL1        0.0973
     39 C         143.3735  134.8752  154.9366 C.ar    1  UNL1        0.0427
     40 C         142.4045  135.5077  153.9822 C.ar    1  UNL1        0.1217
     41 N         142.0688  136.8748  154.5004 N.ar    1  UNL1       -0.1672
@<TRIPOS>BOND
     1    21    22    1
     2    22    19    1
     3    19    20    2
     4    19     1    1
     5     1     2   ar
     6     2     3   ar
     7     3     4   ar
     8     4     5   ar
     9     5     6   ar
    10     5     7    1
    11     7     8   am
    12     8     9    2
    13     8    10    1
    14    10    11    2
    15    11    23    1
    16    23    25    1
    17    25    26   ar
    18    26    27   ar
    19    27    28   ar
    20    28    29   ar
    21    29    30   ar
    22    29    31    1
    23    31    32   am
    24    32    33    2
    25    32    36    1
    26    36    37    1
    27    37    38   ar
    28    38    39   ar
    29    39    40   ar
    30    40    41   ar
    31    31    34    1
    32    34    35    1
    33    11    13    1
    34    13    14   ar
    35    14    15   ar
    36    15    16   ar
    37    16    17   ar
    38    17    18   ar
    39     6     1   ar
    40    30    25   ar
    41    41    37   ar
    42    18    13   ar
    43    10     4    1
    44    35    28    1
    45     7    12    1
    46    23    24    1
@<TRIPOS>MOLECULE
*****
 41 46 0 0 0
SMALL
GASTEIGER

@<TRIPOS>ATOM
      1 C         141.1461  141.8137  169.2631 C.ar    1  UNL1        0.0769
      2 C         142.2152  141.8162  168.2111 C.ar    1  UNL1        0.0065
      3 C         142.0644  140.9632  166.9864 C.ar    1  UNL1        0.0016
      4 C         140.8444  140.1078  166.8139 C.ar    1  UNL1        0.0191
      5 C         139.7752  140.1054  167.8659 C.ar    1  UNL1        0.0509
      6 C         139.9260  140.9583  169.0905 C.ar    1  UNL1        0.0211
      7 N         138.6920  139.1666  167.4238 N.am    1  UNL1       -0.2803
      8 C         139.0917  138.5888  166.0985 C.2     1  UNL1        0.2507
      9 O         138.3003  137.6025  165.2918 O.2     1  UNL1       -0.2698
     10 C         140.4220  139.1706  165.7216 C.2     1  UNL1        0.0682
     11 C         141.1943  138.8681  164.4717 C.2     1  UNL1        0.0527
     12 H         137.8640  138.9650  167.9169 H       1  UNL1        0.1552
     13 C         142.5184  139.5299  164.2297 C.ar    1  UNL1        0.0136
     14 C         142.5773  140.8581  163.5352 C.ar    1  UNL1        0.0012
     15 C         143.9016  141.5199  163.2931 C.ar    1  UNL1        0.0000
     16 C         145.1669  140.8533  163.7455 C.ar    1  UNL1        0.0000
     17 C         145.1080  139.5250  164.4400 C.ar    1  UNL1        0.0000
     18 C         143.7838  138.8634  164.6820 C.ar    1  UNL1        0.0012
     19 C         141.2969  142.6667  170.4878 C.2     1  UNL1        0.3414
     20 O         141.4562  142.0246  171.8340 O.2     1  UNL1       -0.2449
     21 C         139.9873  144.8958  170.2312 C.3     1  UNL1        0.2560
     22 O         141.2884  144.1617  170.3662 O.3     1  UNL1       -0.4413
     23 N         140.6424  137.9039  163.4639 N.pl3   1  UNL1       -0.3124
     24 H         140.5983  136.9432  163.6746 H       1  UNL1        0.1522
     25 C         140.1578  138.4033  162.1351 C.ar    1  UNL1        0.0495
     26 C         138.7078  138.7352  161.9420 C.ar    1  UNL1        0.0144
     27 C         138.2232  139.2346  160.6132 C.ar    1  UNL1       -0.0017
     28 C         139.1887  139.4022  159.4775 C.ar    1  UNL1       -0.0067
     29 C         140.6386  139.0704  159.6706 C.ar    1  UNL1        0.0512
     30 C         141.1232  138.5709  160.9994 C.ar    1  UNL1        0.0292
     31 N         141.3508  139.3341  158.3770 N.am    1  UNL1       -0.2569
     32 C         142.8157  139.1375  158.1210 C.2     1  UNL1        0.2542
     33 O         143.7075  138.6332  159.2166 O.2     1  UNL1       -0.2724
     34 C         140.3409  139.8289  157.3845 C.3     1  UNL1        0.1030
     35 C         139.0046  139.8711  158.0646 C.3     1  UNL1        0.0495
     36 C         143.3887  139.4452  156.7694 C.3     1  UNL1        0.2124
     37 N         144.5370  140.4017  156.6416 N.ar    1  UNL1       -0.2400
     38 C         145.5694  140.3996  155.5534 C.ar    1  UNL1        0.0973
     39 C         146.5251  141.5249  155.8189 C.ar    1  UNL1        0.0427
     40 C         146.0833  142.2224  157.0712 C.ar    1  UNL1        0.1217
     41 N         144.8546  141.5283  157.5797 N.ar    1  UNL1       -0.1672
@<TRIPOS>BOND
     1    21    22    1
     2    22    19    1
     3    19    20    2
     4    19     1    1
     5     1     2   ar
     6     2     3   ar
     7     3     4   ar
     8     4     5   ar
     9     5     6   ar
    10     5     7    1
    11     7     8   am
    12     8     9    2
    13     8    10    1
    14    10    11    2
    15    11    23    1
    16    23    25    1
    17    25    26   ar
    18    26    27   ar
    19    27    28   ar
    20    28    29   ar
    21    29    30   ar
    22    29    31    1
    23    31    32   am
    24    32    33    2
    25    32    36    1
    26    36    37    1
    27    37    38   ar
    28    38    39   ar
    29    39    40   ar
    30    40    41   ar
    31    31    34    1
    32    34    35    1
    33    11    13    1
    34    13    14   ar
    35    14    15   ar
    36    15    16   ar
    37    16    17   ar
    38    17    18   ar
    39     6     1   ar
    40    30    25   ar
    41    41    37   ar
    42    18    13   ar
    43    10     4    1
    44    35    28    1
    45     7    12    1
    46    23    24    1
@<TRIPOS>MOLECULE
*****
 41 46 0 0 0
SMALL
GASTEIGER

@<TRIPOS>ATOM
      1 C         138.6912  139.4584  166.0053 C.ar    1  UNL1        0.0769
      2 C         139.0395  140.8644  165.6158 C.ar    1  UNL1        0.0065
      3 C         139.3956  141.1824  164.1938 C.ar    1  UNL1        0.0016
      4 C         139.4033  140.0944  163.1613 C.ar    1  UNL1        0.0191
      5 C         139.0549  138.6884  163.5508 C.ar    1  UNL1        0.0509
      6 C         138.6989  138.3704  164.9728 C.ar    1  UNL1        0.0211
      7 N         139.1469  137.8310  162.3233 N.am    1  UNL1       -0.2803
      8 C         139.5522  138.7072  161.1753 C.2     1  UNL1        0.2507
      9 O         139.7622  138.2627  159.7581 O.2     1  UNL1       -0.2698
     10 C         139.7106  140.1061  161.6932 C.2     1  UNL1        0.0682
     11 C         140.1068  141.3059  160.8848 C.2     1  UNL1        0.0527
     12 H         138.9721  136.8632  162.2790 H       1  UNL1        0.1552
     13 C         140.2252  142.6483  161.5436 C.ar    1  UNL1        0.0136
     14 C         139.0132  143.5189  161.6951 C.ar    1  UNL1        0.0012
     15 C         139.1317  144.8614  162.3539 C.ar    1  UNL1        0.0000
     16 C         140.4622  145.3331  162.8611 C.ar    1  UNL1        0.0000
     17 C         141.6742  144.4624  162.7096 C.ar    1  UNL1        0.0000
     18 C         141.5557  143.1200  162.0509 C.ar    1  UNL1        0.0012
     19 C         138.3351  139.1404  167.4273 C.2     1  UNL1        0.3414
     20 O         137.3100  138.0870  167.7262 O.2     1  UNL1       -0.2449
     21 C         140.4989  139.8558  168.6748 C.3     1  UNL1        0.2560
     22 O         139.0042  139.8758  168.5504 O.3     1  UNL1       -0.4413
     23 N         140.3846  141.1634  159.4177 N.pl3   1  UNL1       -0.3124
     24 H         141.2104  140.7218  159.1137 H       1  UNL1        0.1522
     25 C         139.4044  141.6937  158.4137 C.ar    1  UNL1        0.0495
     26 C         138.1416  140.9369  158.1263 C.ar    1  UNL1        0.0144
     27 C         137.1614  141.4672  157.1224 C.ar    1  UNL1       -0.0017
     28 C         137.4439  142.7543  156.4058 C.ar    1  UNL1       -0.0067
     29 C         138.7067  143.5111  156.6932 C.ar    1  UNL1        0.0512
     30 C         139.6869  142.9808  157.6972 C.ar    1  UNL1        0.0292
     31 N         138.7138  144.7429  155.8373 N.am    1  UNL1       -0.2569
     32 C         139.7904  145.7870  155.8037 C.2     1  UNL1        0.2542
     33 O         140.9983  145.6473  156.6819 O.2     1  UNL1       -0.2724
     34 C         137.4554  144.7474  155.0209 C.3     1  UNL1        0.1030
     35 C         136.6706  143.5184  155.3723 C.3     1  UNL1        0.0495
     36 C         139.6589  146.9707  154.8918 C.3     1  UNL1        0.2124
     37 N         139.1971  148.2896  155.4368 N.ar    1  UNL1       -0.2400
     38 C         138.6168  148.5260  156.7996 C.ar    1  UNL1        0.0973
     39 C         138.2955  149.9863  156.9198 C.ar    1  UNL1        0.0427
     40 C         138.6773  150.6524  155.6311 C.ar    1  UNL1        0.1217
     41 N         139.2345  149.6038  154.7146 N.ar    1  UNL1       -0.1672
@<TRIPOS>BOND
     1    21    22    1
     2    22    19    1
     3    19    20    2
     4    19     1    1
     5     1     2   ar
     6     2     3   ar
     7     3     4   ar
     8     4     5   ar
     9     5     6   ar
    10     5     7    1
    11     7     8   am
    12     8     9    2
    13     8    10    1
    14    10    11    2
    15    11    23    1
    16    23    25    1
    17    25    26   ar
    18    26    27   ar
    19    27    28   ar
    20    28    29   ar
    21    29    30   ar
    22    29    31    1
    23    31    32   am
    24    32    33    2
    25    32    36    1
    26    36    37    1
    27    37    38   ar
    28    38    39   ar
    29    39    40   ar
    30    40    41   ar
    31    31    34    1
    32    34    35    1
    33    11    13    1
    34    13    14   ar
    35    14    15   ar
    36    15    16   ar
    37    16    17   ar
    38    17    18   ar
    39     6     1   ar
    40    30    25   ar
    41    41    37   ar
    42    18    13   ar
    43    10     4    1
    44    35    28    1
    45     7    12    1
    46    23    24    1
@<TRIPOS>MOLECULE
*****
 41 46 0 0 0
SMALL
GASTEIGER

@<TRIPOS>ATOM
      1 C         140.9128  141.3009  169.2256 C.ar    1  UNL1        0.0769
      2 C         142.0886  141.4940  168.3146 C.ar    1  UNL1        0.0065
      3 C         142.0868  140.8782  166.9468 C.ar    1  UNL1        0.0016
      4 C         140.9091  140.0694  166.4901 C.ar    1  UNL1        0.0191
      5 C         139.7332  139.8763  167.4011 C.ar    1  UNL1        0.0509
      6 C         139.7351  140.4921  168.7688 C.ar    1  UNL1        0.0211
      7 N         138.7221  139.0343  166.6808 N.am    1  UNL1       -0.2803
      8 C         139.2731  138.7070  165.3246 C.2     1  UNL1        0.2507
      9 O         138.5921  137.8845  164.2712 O.2     1  UNL1       -0.2698
     10 C         140.6247  139.3467  165.2067 C.2     1  UNL1        0.0682
     11 C         141.5326  139.2762  164.0148 C.2     1  UNL1        0.0527
     12 H         137.8499  138.7469  167.0358 H       1  UNL1        0.1552
     13 C         142.8622  139.9700  164.0426 C.ar    1  UNL1        0.0136
     14 C         144.1050  139.1969  164.3706 C.ar    1  UNL1        0.0012
     15 C         145.4346  139.8909  164.3983 C.ar    1  UNL1        0.0000
     16 C         145.5213  141.3580  164.0981 C.ar    1  UNL1        0.0000
     17 C         144.2785  142.1311  163.7701 C.ar    1  UNL1        0.0000
     18 C         142.9490  141.4372  163.7424 C.ar    1  UNL1        0.0012
     19 C         140.9146  141.9167  170.5934 C.2     1  UNL1        0.3414
     20 O         140.6948  141.0575  171.8030 O.2     1  UNL1       -0.2449
     21 C         140.2935  144.3638  169.9800 C.3     1  UNL1        0.2560
     22 O         141.1362  143.3918  170.7515 O.3     1  UNL1       -0.4413
     23 N         141.1110  138.5118  162.7950 N.pl3   1  UNL1       -0.3124
     24 H         141.3319  137.5559  162.7124 H       1  UNL1        0.1522
     25 C         140.3529  139.2037  161.7012 C.ar    1  UNL1        0.0495
     26 C         139.3986  138.4273  160.8429 C.ar    1  UNL1        0.0144
     27 C         138.6405  139.1192  159.7491 C.ar    1  UNL1       -0.0017
     28 C         138.8366  140.5876  159.5134 C.ar    1  UNL1       -0.0067
     29 C         139.7909  141.3639  160.3717 C.ar    1  UNL1        0.0512
     30 C         140.5490  140.6720  161.4655 C.ar    1  UNL1        0.0292
     31 N         139.7772  142.7901  159.9069 N.am    1  UNL1       -0.2569
     32 C         140.5845  143.9139  160.4860 C.2     1  UNL1        0.2542
     33 O         141.5107  143.6563  161.6374 O.2     1  UNL1       -0.2724
     34 C         138.8145  142.8950  158.7614 C.3     1  UNL1        0.1030
     35 C         138.2332  141.5338  158.5182 C.3     1  UNL1        0.0495
     36 C         140.4655  145.2953  159.9136 C.3     1  UNL1        0.2124
     37 N         140.8524  145.5521  158.4873 N.ar    1  UNL1       -0.2400
     38 C         142.1244  145.1114  157.8258 C.ar    1  UNL1        0.0973
     39 C         142.0933  145.5815  156.4017 C.ar    1  UNL1        0.0427
     40 C         140.8020  146.3128  156.1832 C.ar    1  UNL1        0.1217
     41 N         140.0351  146.2946  157.4722 N.ar    1  UNL1       -0.1672
@<TRIPOS>BOND
     1    21    22    1
     2    22    19    1
     3    19    20    2
     4    19     1    1
     5     1     2   ar
     6     2     3   ar
     7     3     4   ar
     8     4     5   ar
     9     5     6   ar
    10     5     7    1
    11     7     8   am
    12     8     9    2
    13     8    10    1
    14    10    11    2
    15    11    23    1
    16    23    25    1
    17    25    26   ar
    18    26    27   ar
    19    27    28   ar
    20    28    29   ar
    21    29    30   ar
    22    29    31    1
    23    31    32   am
    24    32    33    2
    25    32    36    1
    26    36    37    1
    27    37    38   ar
    28    38    39   ar
    29    39    40   ar
    30    40    41   ar
    31    31    34    1
    32    34    35    1
    33    11    13    1
    34    13    14   ar
    35    14    15   ar
    36    15    16   ar
    37    16    17   ar
    38    17    18   ar
    39     6     1   ar
    40    30    25   ar
    41    41    37   ar
    42    18    13   ar
    43    10     4    1
    44    35    28    1
    45     7    12    1
    46    23    24    1
@<TRIPOS>MOLECULE
*****
 41 46 0 0 0
SMALL
GASTEIGER

@<TRIPOS>ATOM
      1 C         140.4693  140.0337  168.7716 C.ar    1  UNL1        0.0769
      2 C         141.7387  140.2687  168.0080 C.ar    1  UNL1        0.0065
      3 C         141.7335  140.2133  166.5090 C.ar    1  UNL1        0.0016
      4 C         140.4588  139.9229  165.7737 C.ar    1  UNL1        0.0191
      5 C         139.1893  139.6878  166.5373 C.ar    1  UNL1        0.0509
      6 C         139.1946  139.7432  168.0363 C.ar    1  UNL1        0.0211
      7 N         138.0942  139.4253  165.5464 N.am    1  UNL1       -0.2803
      8 C         138.6868  139.4981  164.1704 C.2     1  UNL1        0.2507
      9 O         137.9479  139.2984  162.8804 O.2     1  UNL1       -0.2698
     10 C         140.1483  139.8056  164.3109 C.2     1  UNL1        0.0682
     11 C         141.1273  139.9675  163.1860 C.2     1  UNL1        0.0527
     12 H         137.1519  139.2380  165.7615 H       1  UNL1        0.1552
     13 C         142.5651  140.2758  163.4816 C.ar    1  UNL1        0.0136
     14 C         143.0344  141.7000  163.5196 C.ar    1  UNL1        0.0012
     15 C         144.4724  142.0082  163.8153 C.ar    1  UNL1        0.0000
     16 C         145.4410  140.8922  164.0729 C.ar    1  UNL1        0.0000
     17 C         144.9718  139.4681  164.0349 C.ar    1  UNL1        0.0000
     18 C         143.5338  139.1598  163.7393 C.ar    1  UNL1        0.0012
     19 C         140.4745  140.0890  170.2706 C.2     1  UNL1        0.3414
     20 O         139.2787  139.6159  171.0427 O.2     1  UNL1       -0.2449
     21 C         141.8296  142.0933  171.2173 C.3     1  UNL1        0.2560
     22 O         141.6754  140.6176  170.9974 O.3     1  UNL1       -0.4413
     23 N         140.6684  139.8211  161.7654 N.pl3   1  UNL1       -0.3124
     24 H         139.7564  139.5042  161.5729 H       1  UNL1        0.1522
     25 C         141.5991  140.1574  160.6382 C.ar    1  UNL1        0.0495
     26 C         142.5987  139.1449  160.1633 C.ar    1  UNL1        0.0144
     27 C         143.5294  139.4813  159.0361 C.ar    1  UNL1       -0.0017
     28 C         143.4605  140.8302  158.3837 C.ar    1  UNL1       -0.0067
     29 C         142.4609  141.8427  158.8585 C.ar    1  UNL1        0.0512
     30 C         141.5302  141.5063  159.9858 C.ar    1  UNL1        0.0292
     31 N         142.6251  143.0810  158.0281 N.am    1  UNL1       -0.2569
     32 C         141.8281  144.3447  158.1622 C.2     1  UNL1        0.2542
     33 O         140.7524  144.4461  159.2026 O.2     1  UNL1       -0.2724
     34 C         143.7263  142.8338  157.0400 C.3     1  UNL1        0.1030
     35 C         144.2425  141.4427  157.2598 C.3     1  UNL1        0.0495
     36 C         142.1070  145.5070  157.2559 C.3     1  UNL1        0.2124
     37 N         140.9871  146.1458  156.4893 N.ar    1  UNL1       -0.2400
     38 C         140.9142  146.3001  154.9990 C.ar    1  UNL1        0.0973
     39 C         139.6255  146.9922  154.6671 C.ar    1  UNL1        0.0427
     40 C         138.9019  147.2657  155.9523 C.ar    1  UNL1        0.1217
     41 N         139.7434  146.7426  157.0784 N.ar    1  UNL1       -0.1672
@<TRIPOS>BOND
     1    21    22    1
     2    22    19    1
     3    19    20    2
     4    19     1    1
     5     1     2   ar
     6     2     3   ar
     7     3     4   ar
     8     4     5   ar
     9     5     6   ar
    10     5     7    1
    11     7     8   am
    12     8     9    2
    13     8    10    1
    14    10    11    2
    15    11    23    1
    16    23    25    1
    17    25    26   ar
    18    26    27   ar
    19    27    28   ar
    20    28    29   ar
    21    29    30   ar
    22    29    31    1
    23    31    32   am
    24    32    33    2
    25    32    36    1
    26    36    37    1
    27    37    38   ar
    28    38    39   ar
    29    39    40   ar
    30    40    41   ar
    31    31    34    1
    32    34    35    1
    33    11    13    1
    34    13    14   ar
    35    14    15   ar
    36    15    16   ar
    37    16    17   ar
    38    17    18   ar
    39     6     1   ar
    40    30    25   ar
    41    41    37   ar
    42    18    13   ar
    43    10     4    1
    44    35    28    1
    45     7    12    1
    46    23    24    1
@<TRIPOS>MOLECULE
*****
 41 46 0 0 0
SMALL
GASTEIGER

@<TRIPOS>ATOM
      1 C         140.1684  146.1272  157.1122 C.ar    1  UNL1        0.0769
      2 C         140.0482  146.0359  158.6045 C.ar    1  UNL1        0.0065
      3 C         140.9863  145.1595  159.3803 C.ar    1  UNL1        0.0016
      4 C         142.0446  144.3744  158.6637 C.ar    1  UNL1        0.0191
      5 C         142.1648  144.4657  157.1714 C.ar    1  UNL1        0.0509
      6 C         141.2267  145.3421  156.3956 C.ar    1  UNL1        0.0211
      7 N         143.2982  143.5815  156.7427 N.am    1  UNL1       -0.2803
      8 C         143.8784  142.9438  157.9701 C.2     1  UNL1        0.2507
      9 O         145.0311  141.9845  158.0043 O.2     1  UNL1       -0.2698
     10 C         143.1037  143.4339  159.1574 C.2     1  UNL1        0.0682
     11 C         143.3455  143.0506  160.5873 C.2     1  UNL1        0.0527
     12 H         143.6070  143.4439  155.8180 H       1  UNL1        0.1552
     13 C         142.4850  143.6247  161.6735 C.ar    1  UNL1        0.0136
     14 C         143.0175  144.7155  162.5547 C.ar    1  UNL1        0.0012
     15 C         142.1568  145.2895  163.6409 C.ar    1  UNL1        0.0000
     16 C         140.7637  144.7727  163.8460 C.ar    1  UNL1        0.0000
     17 C         140.2312  143.6818  162.9648 C.ar    1  UNL1        0.0000
     18 C         141.0918  143.1078  161.8786 C.ar    1  UNL1        0.0012
     19 C         139.2302  147.0036  156.3364 C.2     1  UNL1        0.3414
     20 O         138.7726  148.3096  156.9150 O.2     1  UNL1       -0.2449
     21 C         137.7626  145.4516  154.8575 C.3     1  UNL1        0.2560
     22 O         138.7498  146.5740  154.9819 O.3     1  UNL1       -0.4413
     23 N         144.4480  142.0933  160.9310 N.pl3   1  UNL1       -0.3124
     24 H         145.2402  142.0259  160.3505 H       1  UNL1        0.1522
     25 C         144.3434  141.2387  162.1593 C.ar    1  UNL1        0.0495
     26 C         145.4587  141.2272  163.1622 C.ar    1  UNL1        0.0144
     27 C         145.3541  140.3726  164.3905 C.ar    1  UNL1       -0.0017
     28 C         144.1341  139.5295  164.6159 C.ar    1  UNL1       -0.0067
     29 C         143.0188  139.5410  163.6130 C.ar    1  UNL1        0.0512
     30 C         143.1234  140.3956  162.3847 C.ar    1  UNL1        0.0292
     31 N         141.9468  138.6123  164.1013 N.am    1  UNL1       -0.2569
     32 C         140.6497  138.3204  163.4068 C.2     1  UNL1        0.2542
     33 O         140.3325  138.9848  162.0999 O.2     1  UNL1       -0.2724
     34 C         142.3996  138.0269  165.4060 C.3     1  UNL1        0.1030
     35 C         143.7515  138.5937  165.7241 C.3     1  UNL1        0.0495
     36 C         139.6697  137.3640  164.0192 C.3     1  UNL1        0.2124
     37 N         138.8494  137.7856  165.2021 N.ar    1  UNL1       -0.2400
     38 C         138.7365  139.1794  165.7450 C.ar    1  UNL1        0.0973
     39 C         137.8153  139.1428  166.9282 C.ar    1  UNL1        0.0427
     40 C         137.3588  137.7263  167.1165 C.ar    1  UNL1        0.1217
     41 N         137.9979  136.8876  166.0497 N.ar    1  UNL1       -0.1672
@<TRIPOS>BOND
     1    21    22    1
     2    22    19    1
     3    19    20    2
     4    19     1    1
     5     1     2   ar
     6     2     3   ar
     7     3     4   ar
     8     4     5   ar
     9     5     6   ar
    10     5     7    1
    11     7     8   am
    12     8     9    2
    13     8    10    1
    14    10    11    2
    15    11    23    1
    16    23    25    1
    17    25    26   ar
    18    26    27   ar
    19    27    28   ar
    20    28    29   ar
    21    29    30   ar
    22    29    31    1
    23    31    32   am
    24    32    33    2
    25    32    36    1
    26    36    37    1
    27    37    38   ar
    28    38    39   ar
    29    39    40   ar
    30    40    41   ar
    31    31    34    1
    32    34    35    1
    33    11    13    1
    34    13    14   ar
    35    14    15   ar
    36    15    16   ar
    37    16    17   ar
    38    17    18   ar
    39     6     1   ar
    40    30    25   ar
    41    41    37   ar
    42    18    13   ar
    43    10     4    1
    44    35    28    1
    45     7    12    1
    46    23    24    1
@<TRIPOS>MOLECULE
*****
 41 46 0 0 0
SMALL
GASTEIGER

@<TRIPOS>ATOM
      1 C         140.7745  141.9733  168.8233 C.ar    1  UNL1        0.0769
      2 C         141.8939  142.0969  167.8326 C.ar    1  UNL1        0.0065
      3 C         141.9043  141.2396  166.6018 C.ar    1  UNL1        0.0016
      4 C         140.7952  140.2587  166.3617 C.ar    1  UNL1        0.0191
      5 C         139.6758  140.1351  167.3524 C.ar    1  UNL1        0.0509
      6 C         139.6654  140.9924  168.5832 C.ar    1  UNL1        0.0211
      7 N         138.7265  139.0874  166.8509 N.am    1  UNL1       -0.2803
      8 C         139.2593  138.5636  165.5502 C.2     1  UNL1        0.2507
      9 O         138.6250  137.5023  164.7009 O.2     1  UNL1       -0.2698
     10 C         140.5379  139.2875  165.2479 C.2     1  UNL1        0.0682
     11 C         141.4065  139.0772  164.0432 C.2     1  UNL1        0.0527
     12 H         137.8991  138.7950  167.2971 H       1  UNL1        0.1552
     13 C         142.6629  139.8792  163.8752 C.ar    1  UNL1        0.0136
     14 C         143.9712  139.3357  164.3681 C.ar    1  UNL1        0.0012
     15 C         145.2276  140.1379  164.2000 C.ar    1  UNL1        0.0000
     16 C         145.1756  141.4834  163.5390 C.ar    1  UNL1        0.0000
     17 C         143.8673  142.0268  163.0461 C.ar    1  UNL1        0.0000
     18 C         142.6110  141.2247  163.2142 C.ar    1  UNL1        0.0012
     19 C         140.7641  142.8306  170.0541 C.2     1  UNL1        0.3414
     20 O         140.1733  144.2084  170.0035 O.2     1  UNL1       -0.2449
     21 C         142.0111  140.9667  171.3659 C.3     1  UNL1        0.2560
     22 O         141.3446  142.3102  171.3356 O.3     1  UNL1       -0.4413
     23 N         141.0188  138.0647  163.0066 N.pl3   1  UNL1       -0.3124
     24 H         140.5804  137.2259  163.2775 H       1  UNL1        0.1522
     25 C         141.2990  138.3304  161.5571 C.ar    1  UNL1        0.0495
     26 C         142.5731  137.8385  160.9371 C.ar    1  UNL1        0.0144
     27 C         142.8533  138.1041  159.4876 C.ar    1  UNL1       -0.0017
     28 C         141.8593  138.8617  158.6582 C.ar    1  UNL1       -0.0067
     29 C         140.5851  139.3536  159.2782 C.ar    1  UNL1        0.0512
     30 C         140.3050  139.0880  160.7277 C.ar    1  UNL1        0.0292
     31 N         139.7994  140.0675  158.2185 N.am    1  UNL1       -0.2569
     32 C         138.4602  140.7180  158.4016 C.2     1  UNL1        0.2542
     33 O         137.7891  140.6882  159.7428 O.2     1  UNL1       -0.2724
     34 C         140.5880  140.0168  156.9435 C.3     1  UNL1        0.1030
     35 C         141.8611  139.2716  157.2153 C.3     1  UNL1        0.0495
     36 C         137.7921  141.3981  157.2436 C.3     1  UNL1        0.2124
     37 N         136.8943  140.6164  156.3310 N.ar    1  UNL1       -0.2400
     38 C         135.3995  140.7215  156.2624 C.ar    1  UNL1        0.0973
     39 C         134.9149  139.7625  155.2157 C.ar    1  UNL1        0.0427
     40 C         136.1103  139.0647  154.6375 C.ar    1  UNL1        0.1217
     41 N         137.3335  139.5925  155.3267 N.ar    1  UNL1       -0.1672
@<TRIPOS>BOND
     1    21    22    1
     2    22    19    1
     3    19    20    2
     4    19     1    1
     5     1     2   ar
     6     2     3   ar
     7     3     4   ar
     8     4     5   ar
     9     5     6   ar
    10     5     7    1
    11     7     8   am
    12     8     9    2
    13     8    10    1
    14    10    11    2
    15    11    23    1
    16    23    25    1
    17    25    26   ar
    18    26    27   ar
    19    27    28   ar
    20    28    29   ar
    21    29    30   ar
    22    29    31    1
    23    31    32   am
    24    32    33    2
    25    32    36    1
    26    36    37    1
    27    37    38   ar
    28    38    39   ar
    29    39    40   ar
    30    40    41   ar
    31    31    34    1
    32    34    35    1
    33    11    13    1
    34    13    14   ar
    35    14    15   ar
    36    15    16   ar
    37    16    17   ar
    38    17    18   ar
    39     6     1   ar
    40    30    25   ar
    41    41    37   ar
    42    18    13   ar
    43    10     4    1
    44    35    28    1
    45     7    12    1
    46    23    24    1
