@<TRIPOS>MOLECULE
*****
 35 38 0 0 0
SMALL
GASTEIGER

@<TRIPOS>ATOM
      1 C         141.5289  143.6462  162.0700 C.3     1  UNL1        0.1752
      2 C         141.8702  143.9071  160.6328 C.ar    1  UNL1        0.0089
      3 C         142.8335  143.2438  159.6936 C.ar    1  UNL1       -0.0021
      4 C         142.9617  143.7335  158.2816 C.ar    1  UNL1       -0.0003
      5 C         142.1267  144.8864  157.8088 C.ar    1  UNL1        0.0001
      6 C         141.1634  145.5497  158.7480 C.ar    1  UNL1        0.0043
      7 C         141.0352  145.0600  160.1600 C.ar    1  UNL1        0.0516
      8 C         140.1778  145.5116  161.3050 C.2     1  UNL1        0.2494
      9 O         139.1889  146.6391  161.2748 O.2     1  UNL1       -0.2699
     10 N         140.4830  144.6379  162.4854 N.am    1  UNL1       -0.2623
     11 O         141.6424  141.1656  162.8339 O.2     1  UNL1       -0.2729
     12 C         142.1284  142.5807  162.9391 C.2     1  UNL1        0.2452
     13 N         143.2139  142.9304  163.9135 N.am    1  UNL1       -0.2988
     14 H         143.5329  143.8592  163.9826 H       1  UNL1        0.1498
     15 C         143.8134  141.8649  164.7826 C.3     1  UNL1        0.1164
     16 C         143.0298  141.3073  165.9337 C.ar    1  UNL1       -0.0024
     17 C         142.2618  142.2285  166.8346 C.ar    1  UNL1        0.0005
     18 C         141.4783  141.6707  167.9857 C.ar    1  UNL1        0.0369
     19 C         141.4626  140.1918  168.2359 C.ar    1  UNL1        0.1468
     20 C         142.2305  139.2706  167.3349 C.ar    1  UNL1        0.0369
     21 C         143.0141  139.8283  166.1838 C.ar    1  UNL1        0.0005
     22 O         140.6790  139.6341  169.3869 O.3     1  UNL1       -0.4045
     23 C         139.4190  140.3132  169.8356 C.3     1  UNL1        0.5753
     24 F         138.1590  140.9922  170.2842 F       1  UNL1       -0.1328
     25 F         140.1371  140.8515  171.0375 F       1  UNL1       -0.1328
     26 F         138.7009  139.7749  168.6337 F       1  UNL1       -0.1328
     27 C         139.8528  144.7382  163.8429 C.3     1  UNL1        0.1417
     28 C         138.4102  144.3719  164.0290 C.3     1  UNL1        0.2285
     29 O         137.8253  143.2182  163.2695 O.3     1  UNL1       -0.4583
     30 C         138.1835  141.8118  163.6489 C.ar    1  UNL1        0.2249
     31 C         138.7486  141.5223  165.0078 C.ar    1  UNL1        0.0577
     32 C         139.1068  140.1159  165.3872 C.ar    1  UNL1        0.0064
     33 C         138.8998  138.9990  164.4075 C.ar    1  UNL1        0.0209
     34 C         138.3347  139.2885  163.0485 C.ar    1  UNL1        0.1021
     35 N         137.9765  140.6949  162.6692 N.ar    1  UNL1       -0.2101
@<TRIPOS>BOND
     1    11    12    2
     2    12    13   am
     3    13    15    1
     4    15    16    1
     5    16    17   ar
     6    17    18   ar
     7    18    19   ar
     8    19    22    1
     9    22    23    1
    10    23    24    1
    11    23    25    1
    12    23    26    1
    13    19    20   ar
    14    20    21   ar
    15    12     1    1
    16     1     2    1
    17     2     3   ar
    18     3     4   ar
    19     4     5   ar
    20     5     6   ar
    21     6     7   ar
    22     7     8    1
    23     8     9    2
    24     8    10   am
    25    10    27    1
    26    27    28    1
    27    28    29    1
    28    29    30    1
    29    30    31   ar
    30    31    32   ar
    31    32    33   ar
    32    33    34   ar
    33    34    35   ar
    34    21    16   ar
    35    10     1    1
    36    35    30   ar
    37     7     2   ar
    38    13    14    1
@<TRIPOS>MOLECULE
*****
 35 38 0 0 0
SMALL
GASTEIGER

@<TRIPOS>ATOM
      1 C         139.3069  143.4650  161.1433 C.3     1  UNL1        0.1752
      2 C         139.1674  142.8330  159.7901 C.ar    1  UNL1        0.0089
      3 C         138.4001  141.6343  159.3164 C.ar    1  UNL1       -0.0021
      4 C         138.4523  141.2332  157.8720 C.ar    1  UNL1       -0.0003
      5 C         139.2718  142.0307  156.9013 C.ar    1  UNL1        0.0001
      6 C         140.0391  143.2294  157.3749 C.ar    1  UNL1        0.0043
      7 C         139.9869  143.6305  158.8193 C.ar    1  UNL1        0.0516
      8 C         140.6328  144.7554  159.5726 C.2     1  UNL1        0.2494
      9 O         141.5398  145.7993  158.9916 O.2     1  UNL1       -0.2699
     10 N         140.2125  144.6531  161.0089 N.am    1  UNL1       -0.2623
     11 O         137.5243  143.7743  163.0079 O.2     1  UNL1       -0.2729
     12 C         138.6551  142.9918  162.4087 C.2     1  UNL1        0.2452
     13 N         139.1341  141.7361  163.0750 N.am    1  UNL1       -0.2988
     14 H         139.8762  141.2225  162.6817 H       1  UNL1        0.1498
     15 C         138.4823  141.2630  164.3404 C.3     1  UNL1        0.1164
     16 C         139.2147  141.3664  165.6453 C.ar    1  UNL1       -0.0024
     17 C         139.3475  140.1613  166.5285 C.ar    1  UNL1        0.0005
     18 C         140.0800  140.2648  167.8334 C.ar    1  UNL1        0.0369
     19 C         140.6798  141.5734  168.2551 C.ar    1  UNL1        0.1468
     20 C         140.5470  142.7785  167.3719 C.ar    1  UNL1        0.0369
     21 C         139.8145  142.6750  166.0670 C.ar    1  UNL1        0.0005
     22 O         141.4123  141.6768  169.5600 O.3     1  UNL1       -0.4045
     23 C         142.8514  142.0993  169.5809 C.3     1  UNL1        0.5753
     24 F         144.2905  142.5218  169.6018 F       1  UNL1       -0.1328
     25 F         143.2565  140.7442  169.0812 F       1  UNL1       -0.1328
     26 F         142.4463  143.4544  170.0805 F       1  UNL1       -0.1328
     27 C         140.6254  145.5768  162.1163 C.3     1  UNL1        0.1417
     28 C         141.6945  145.1591  163.0819 C.3     1  UNL1        0.2285
     29 O         142.6333  144.0447  162.7256 O.3     1  UNL1       -0.4583
     30 C         142.7612  142.8541  163.6290 C.ar    1  UNL1        0.2249
     31 C         143.4092  142.9993  164.9740 C.ar    1  UNL1        0.0577
     32 C         143.5371  141.8087  165.8774 C.ar    1  UNL1        0.0064
     33 C         143.0171  140.4728  165.4357 C.ar    1  UNL1        0.0209
     34 C         142.3691  140.3276  164.0907 C.ar    1  UNL1        0.1021
     35 N         142.2412  141.5182  163.1873 N.ar    1  UNL1       -0.2101
@<TRIPOS>BOND
     1    11    12    2
     2    12    13   am
     3    13    15    1
     4    15    16    1
     5    16    17   ar
     6    17    18   ar
     7    18    19   ar
     8    19    22    1
     9    22    23    1
    10    23    24    1
    11    23    25    1
    12    23    26    1
    13    19    20   ar
    14    20    21   ar
    15    12     1    1
    16     1     2    1
    17     2     3   ar
    18     3     4   ar
    19     4     5   ar
    20     5     6   ar
    21     6     7   ar
    22     7     8    1
    23     8     9    2
    24     8    10   am
    25    10    27    1
    26    27    28    1
    27    28    29    1
    28    29    30    1
    29    30    31   ar
    30    31    32   ar
    31    32    33   ar
    32    33    34   ar
    33    34    35   ar
    34    21    16   ar
    35    10     1    1
    36    35    30   ar
    37     7     2   ar
    38    13    14    1
@<TRIPOS>MOLECULE
*****
 35 38 0 0 0
SMALL
GASTEIGER

@<TRIPOS>ATOM
      1 C         143.7722  140.0636  161.6363 C.3     1  UNL1        0.1752
      2 C         143.4190  139.3146  160.3856 C.ar    1  UNL1        0.0089
      3 C         142.9564  137.9064  160.1558 C.ar    1  UNL1       -0.0021
      4 C         142.6743  137.4276  158.7626 C.ar    1  UNL1       -0.0003
      5 C         142.8549  138.3570  157.5991 C.ar    1  UNL1        0.0001
      6 C         143.3176  139.7652  157.8289 C.ar    1  UNL1        0.0043
      7 C         143.5996  140.2440  159.2221 C.ar    1  UNL1        0.0516
      8 C         144.0644  141.5673  159.7538 C.2     1  UNL1        0.2494
      9 O         144.3691  142.7879  158.9369 O.2     1  UNL1       -0.2699
     10 N         144.1711  141.4559  161.2459 N.am    1  UNL1       -0.2623
     11 O         145.0038  139.3691  163.8159 O.2     1  UNL1       -0.2729
     12 C         143.7333  139.5163  163.0324 C.2     1  UNL1        0.2452
     13 N         142.4238  139.1162  163.6449 N.am    1  UNL1       -0.2988
     14 H         141.5898  139.2128  163.1306 H       1  UNL1        0.1498
     15 C         142.3849  138.5690  165.0410 C.3     1  UNL1        0.1164
     16 C         141.7435  139.3630  166.1401 C.ar    1  UNL1       -0.0024
     17 C         142.5965  140.0560  167.1609 C.ar    1  UNL1        0.0005
     18 C         141.9550  140.8499  168.2600 C.ar    1  UNL1        0.0369
     19 C         140.4604  140.9510  168.3383 C.ar    1  UNL1        0.1468
     20 C         139.6074  140.2580  167.3175 C.ar    1  UNL1        0.0369
     21 C         140.2489  139.4639  166.2184 C.ar    1  UNL1        0.0005
     22 O         139.8190  141.7450  169.4375 O.3     1  UNL1       -0.4045
     23 C         140.3275  143.1172  169.7665 C.3     1  UNL1        0.5753
     24 F         140.8361  144.4895  170.0956 F       1  UNL1       -0.1328
     25 F         140.5537  142.6927  171.1873 F       1  UNL1       -0.1328
     26 F         140.1014  143.5418  168.3457 F       1  UNL1       -0.1328
     27 C         144.6011  142.5454  162.1829 C.3     1  UNL1        0.1417
     28 C         143.5922  143.2145  163.0685 C.3     1  UNL1        0.2285
     29 O         142.8700  142.4203  164.1162 O.3     1  UNL1       -0.4583
     30 C         141.3708  142.4308  164.1646 C.ar    1  UNL1        0.2249
     31 C         140.6574  143.3502  165.1110 C.ar    1  UNL1        0.0577
     32 C         139.1582  143.3608  165.1594 C.ar    1  UNL1        0.0064
     33 C         138.3724  142.4520  164.2613 C.ar    1  UNL1        0.0209
     34 C         139.0858  141.5326  163.3148 C.ar    1  UNL1        0.1021
     35 N         140.5850  141.5220  163.2665 N.ar    1  UNL1       -0.2101
@<TRIPOS>BOND
     1    11    12    2
     2    12    13   am
     3    13    15    1
     4    15    16    1
     5    16    17   ar
     6    17    18   ar
     7    18    19   ar
     8    19    22    1
     9    22    23    1
    10    23    24    1
    11    23    25    1
    12    23    26    1
    13    19    20   ar
    14    20    21   ar
    15    12     1    1
    16     1     2    1
    17     2     3   ar
    18     3     4   ar
    19     4     5   ar
    20     5     6   ar
    21     6     7   ar
    22     7     8    1
    23     8     9    2
    24     8    10   am
    25    10    27    1
    26    27    28    1
    27    28    29    1
    28    29    30    1
    29    30    31   ar
    30    31    32   ar
    31    32    33   ar
    32    33    34   ar
    33    34    35   ar
    34    21    16   ar
    35    10     1    1
    36    35    30   ar
    37     7     2   ar
    38    13    14    1
@<TRIPOS>MOLECULE
*****
 35 38 0 0 0
SMALL
GASTEIGER

@<TRIPOS>ATOM
      1 C         140.4013  138.8149  161.0968 C.3     1  UNL1        0.1752
      2 C         141.1904  139.0927  159.8518 C.ar    1  UNL1        0.0089
      3 C         142.6500  138.9519  159.5362 C.ar    1  UNL1       -0.0021
      4 C         143.1612  139.3151  158.1736 C.ar    1  UNL1       -0.0003
      5 C         142.2128  139.8191  157.1265 C.ar    1  UNL1        0.0001
      6 C         140.7531  139.9599  157.4421 C.ar    1  UNL1        0.0043
      7 C         140.2420  139.5967  158.8047 C.ar    1  UNL1        0.0516
      8 C         138.8667  139.6304  159.4026 C.2     1  UNL1        0.2494
      9 O         137.6130  140.0701  158.7062 O.2     1  UNL1       -0.2699
     10 N         138.9652  139.1472  160.8192 N.am    1  UNL1       -0.2623
     11 O         140.6378  136.8972  162.8336 O.2     1  UNL1       -0.2729
     12 C         140.9518  138.2958  162.3920 C.2     1  UNL1        0.2452
     13 N         141.8163  139.1756  163.2458 N.am    1  UNL1       -0.2988
     14 H         142.0224  140.0936  162.9560 H       1  UNL1        0.1498
     15 C         142.3667  138.6566  164.5410 C.3     1  UNL1        0.1164
     16 C         142.0187  139.3387  165.8307 C.ar    1  UNL1       -0.0024
     17 C         142.8811  139.1387  167.0416 C.ar    1  UNL1        0.0005
     18 C         142.5330  139.8209  168.3313 C.ar    1  UNL1        0.0369
     19 C         141.3223  140.7031  168.4103 C.ar    1  UNL1        0.1468
     20 C         140.4599  140.9031  167.1994 C.ar    1  UNL1        0.0369
     21 C         140.8080  140.2209  165.9096 C.ar    1  UNL1        0.0005
     22 O         140.9743  141.3853  169.7000 O.3     1  UNL1       -0.4045
     23 C         140.6960  142.8591  169.7177 C.3     1  UNL1        0.5753
     24 F         140.4178  144.3330  169.7354 F       1  UNL1       -0.1328
     25 F         142.0595  143.1233  169.1511 F       1  UNL1       -0.1328
     26 F         139.3326  142.5949  170.2843 F       1  UNL1       -0.1328
     27 C         137.8273  139.0188  161.7881 C.3     1  UNL1        0.1417
     28 C         137.6901  139.9963  162.9176 C.3     1  UNL1        0.2285
     29 O         137.0615  141.3368  162.6771 O.3     1  UNL1       -0.4583
     30 C         137.7488  142.5832  163.1507 C.ar    1  UNL1        0.2249
     31 C         138.0416  142.7699  164.6099 C.ar    1  UNL1        0.0577
     32 C         138.7289  144.0163  165.0835 C.ar    1  UNL1        0.0064
     33 C         139.1233  145.0760  164.0979 C.ar    1  UNL1        0.0209
     34 C         138.8304  144.8892  162.6386 C.ar    1  UNL1        0.1021
     35 N         138.1432  143.6429  162.1650 N.ar    1  UNL1       -0.2101
@<TRIPOS>BOND
     1    11    12    2
     2    12    13   am
     3    13    15    1
     4    15    16    1
     5    16    17   ar
     6    17    18   ar
     7    18    19   ar
     8    19    22    1
     9    22    23    1
    10    23    24    1
    11    23    25    1
    12    23    26    1
    13    19    20   ar
    14    20    21   ar
    15    12     1    1
    16     1     2    1
    17     2     3   ar
    18     3     4   ar
    19     4     5   ar
    20     5     6   ar
    21     6     7   ar
    22     7     8    1
    23     8     9    2
    24     8    10   am
    25    10    27    1
    26    27    28    1
    27    28    29    1
    28    29    30    1
    29    30    31   ar
    30    31    32   ar
    31    32    33   ar
    32    33    34   ar
    33    34    35   ar
    34    21    16   ar
    35    10     1    1
    36    35    30   ar
    37     7     2   ar
    38    13    14    1
@<TRIPOS>MOLECULE
*****
 35 38 0 0 0
SMALL
GASTEIGER

@<TRIPOS>ATOM
      1 C         138.8361  141.8453  162.0225 C.3     1  UNL1        0.1752
      2 C         139.3224  143.1821  161.5466 C.ar    1  UNL1        0.0089
      3 C         139.5208  144.4887  162.2561 C.ar    1  UNL1       -0.0021
      4 C         140.0319  145.6809  161.5030 C.ar    1  UNL1       -0.0003
      5 C         140.3447  145.5666  160.0404 C.ar    1  UNL1        0.0001
      6 C         140.1464  144.2600  159.3310 C.ar    1  UNL1        0.0043
      7 C         139.6352  143.0677  160.0840 C.ar    1  UNL1        0.0516
      8 C         139.3422  141.6603  159.6561 C.2     1  UNL1        0.2494
      9 O         139.5131  141.1057  158.2729 O.2     1  UNL1       -0.2699
     10 N         138.8484  140.9047  160.8541 N.am    1  UNL1       -0.2623
     11 O         137.3920  142.3567  164.1208 O.2     1  UNL1       -0.2729
     12 C         138.4120  141.5082  163.4213 C.2     1  UNL1        0.2452
     13 N         139.0081  140.3225  164.1206 N.am    1  UNL1       -0.2988
     14 H         139.6777  139.7656  163.6615 H       1  UNL1        0.1498
     15 C         138.5840  139.9854  165.5194 C.3     1  UNL1        0.1164
     16 C         139.3804  140.4893  166.6864 C.ar    1  UNL1       -0.0024
     17 C         140.2342  141.7137  166.5392 C.ar    1  UNL1        0.0005
     18 C         141.0305  142.2175  167.7062 C.ar    1  UNL1        0.0369
     19 C         140.9730  141.4969  169.0206 C.ar    1  UNL1        0.1468
     20 C         140.1191  140.2725  169.1678 C.ar    1  UNL1        0.0369
     21 C         139.3228  139.7687  168.0007 C.ar    1  UNL1        0.0005
     22 O         141.7693  142.0007  170.1876 O.3     1  UNL1       -0.4045
     23 C         143.2286  142.3067  170.0238 C.3     1  UNL1        0.5753
     24 F         144.6879  142.6126  169.8601 F       1  UNL1       -0.1328
     25 F         143.0073  143.6725  170.6031 F       1  UNL1       -0.1328
     26 F         143.4499  140.9409  169.4446 F       1  UNL1       -0.1328
     27 C         138.4387  139.4620  160.8793 C.3     1  UNL1        0.1417
     28 C         139.3561  138.4120  160.3262 C.3     1  UNL1        0.2285
     29 O         140.8064  138.4059  160.7093 O.3     1  UNL1       -0.4583
     30 C         141.1999  138.3223  162.1544 C.ar    1  UNL1        0.2249
     31 C         142.0662  139.3874  162.7587 C.ar    1  UNL1        0.0577
     32 C         142.4598  139.3037  164.2037 C.ar    1  UNL1        0.0064
     33 C         141.9871  138.1549  165.0445 C.ar    1  UNL1        0.0209
     34 C         141.1208  137.0898  164.4401 C.ar    1  UNL1        0.1021
     35 N         140.7273  137.1735  162.9951 N.ar    1  UNL1       -0.2101
@<TRIPOS>BOND
     1    11    12    2
     2    12    13   am
     3    13    15    1
     4    15    16    1
     5    16    17   ar
     6    17    18   ar
     7    18    19   ar
     8    19    22    1
     9    22    23    1
    10    23    24    1
    11    23    25    1
    12    23    26    1
    13    19    20   ar
    14    20    21   ar
    15    12     1    1
    16     1     2    1
    17     2     3   ar
    18     3     4   ar
    19     4     5   ar
    20     5     6   ar
    21     6     7   ar
    22     7     8    1
    23     8     9    2
    24     8    10   am
    25    10    27    1
    26    27    28    1
    27    28    29    1
    28    29    30    1
    29    30    31   ar
    30    31    32   ar
    31    32    33   ar
    32    33    34   ar
    33    34    35   ar
    34    21    16   ar
    35    10     1    1
    36    35    30   ar
    37     7     2   ar
    38    13    14    1
@<TRIPOS>MOLECULE
*****
 35 38 0 0 0
SMALL
GASTEIGER

@<TRIPOS>ATOM
      1 C         140.6154  140.8116  160.3464 C.3     1  UNL1        0.1752
      2 C         141.0380  139.7272  159.4000 C.ar    1  UNL1        0.0089
      3 C         142.3382  139.0009  159.2221 C.ar    1  UNL1       -0.0021
      4 C         142.4669  137.9405  158.1691 C.ar    1  UNL1       -0.0003
      5 C         141.2952  137.6063  157.2941 C.ar    1  UNL1        0.0001
      6 C         139.9950  138.3326  157.4721 C.ar    1  UNL1        0.0043
      7 C         139.8663  139.3931  158.5251 C.ar    1  UNL1        0.0516
      8 C         138.7197  140.2710  158.9306 C.2     1  UNL1        0.2494
      9 O         137.3504  140.2719  158.3181 O.2     1  UNL1       -0.2699
     10 N         139.1826  141.1477  160.0562 N.am    1  UNL1       -0.2623
     11 O         142.0281  142.8255  161.1821 O.2     1  UNL1       -0.2729
     12 C         141.4747  141.4482  161.3981 C.2     1  UNL1        0.2452
     13 N         141.7807  140.7074  162.6661 N.am    1  UNL1       -0.2988
     14 H         141.4175  139.8034  162.8080 H       1  UNL1        0.1498
     15 C         142.6401  141.3440  163.7179 C.3     1  UNL1        0.1164
     16 C         142.2066  141.3239  165.1537 C.ar    1  UNL1       -0.0024
     17 C         141.4176  142.4694  165.7151 C.ar    1  UNL1        0.0005
     18 C         140.9841  142.4492  167.1510 C.ar    1  UNL1        0.0369
     19 C         141.3397  141.2835  168.0255 C.ar    1  UNL1        0.1468
     20 C         142.1288  140.1380  167.4642 C.ar    1  UNL1        0.0369
     21 C         142.5623  140.1582  166.0282 C.ar    1  UNL1        0.0005
     22 O         140.9062  141.2634  169.4614 O.3     1  UNL1       -0.4045
     23 C         139.4839  140.9398  169.8110 C.3     1  UNL1        0.5753
     24 F         138.0616  140.6162  170.1606 F       1  UNL1       -0.1328
     25 F         139.2985  142.3299  170.3433 F       1  UNL1       -0.1328
     26 F         139.6693  139.5498  169.2787 F       1  UNL1       -0.1328
     27 C         138.3576  142.1793  160.7670 C.3     1  UNL1        0.1417
     28 C         137.7842  141.8790  162.1201 C.3     1  UNL1        0.2285
     29 O         138.6965  141.6792  163.2938 O.3     1  UNL1       -0.4583
     30 C         138.7175  140.3623  164.0118 C.ar    1  UNL1        0.2249
     31 C         138.3971  140.3011  165.4758 C.ar    1  UNL1        0.0577
     32 C         138.4181  138.9842  166.1938 C.ar    1  UNL1        0.0064
     33 C         138.7595  137.7286  165.4477 C.ar    1  UNL1        0.0209
     34 C         139.0800  137.7898  163.9835 C.ar    1  UNL1        0.1021
     35 N         139.0590  139.1067  163.2656 N.ar    1  UNL1       -0.2101
@<TRIPOS>BOND
     1    11    12    2
     2    12    13   am
     3    13    15    1
     4    15    16    1
     5    16    17   ar
     6    17    18   ar
     7    18    19   ar
     8    19    22    1
     9    22    23    1
    10    23    24    1
    11    23    25    1
    12    23    26    1
    13    19    20   ar
    14    20    21   ar
    15    12     1    1
    16     1     2    1
    17     2     3   ar
    18     3     4   ar
    19     4     5   ar
    20     5     6   ar
    21     6     7   ar
    22     7     8    1
    23     8     9    2
    24     8    10   am
    25    10    27    1
    26    27    28    1
    27    28    29    1
    28    29    30    1
    29    30    31   ar
    30    31    32   ar
    31    32    33   ar
    32    33    34   ar
    33    34    35   ar
    34    21    16   ar
    35    10     1    1
    36    35    30   ar
    37     7     2   ar
    38    13    14    1
@<TRIPOS>MOLECULE
*****
 35 38 0 0 0
SMALL
GASTEIGER

@<TRIPOS>ATOM
      1 C         141.3225  141.1667  161.1645 C.3     1  UNL1        0.1752
      2 C         141.1096  140.2459  159.9996 C.ar    1  UNL1        0.0089
      3 C         141.8152  138.9949  159.5671 C.ar    1  UNL1       -0.0021
      4 C         141.3697  138.2719  158.3306 C.ar    1  UNL1       -0.0003
      5 C         140.2186  138.8000  157.5267 C.ar    1  UNL1        0.0001
      6 C         139.5131  140.0510  157.9593 C.ar    1  UNL1        0.0043
      7 C         139.9585  140.7739  159.1957 C.ar    1  UNL1        0.0516
      8 C         139.4600  142.0210  159.8638 C.2     1  UNL1        0.2494
      9 O         138.3189  142.8754  159.3969 O.2     1  UNL1       -0.2699
     10 N         140.3030  142.2638  161.0805 N.am    1  UNL1       -0.2623
     11 O         143.4366  142.0606  162.3815 O.2     1  UNL1       -0.2729
     12 C         142.3708  141.0166  162.2268 C.2     1  UNL1        0.2452
     13 N         142.3532  139.8225  163.1345 N.am    1  UNL1       -0.2988
     14 H         141.6537  139.1373  163.0330 H       1  UNL1        0.1498
     15 C         143.4016  139.6725  164.1968 C.3     1  UNL1        0.1164
     16 C         143.1428  140.1832  165.5832 C.ar    1  UNL1       -0.0024
     17 C         142.8376  139.2206  166.6924 C.ar    1  UNL1        0.0005
     18 C         142.5788  139.7314  168.0788 C.ar    1  UNL1        0.0369
     19 C         142.6252  141.2049  168.3561 C.ar    1  UNL1        0.1468
     20 C         142.9303  142.1675  167.2469 C.ar    1  UNL1        0.0369
     21 C         143.1891  141.6566  165.8605 C.ar    1  UNL1        0.0005
     22 O         142.3664  141.7156  169.7425 O.3     1  UNL1       -0.4045
     23 C         141.7301  143.0595  169.9401 C.3     1  UNL1        0.5753
     24 F         141.0938  144.4033  170.1378 F       1  UNL1       -0.1328
     25 F         143.0040  143.5741  170.5420 F       1  UNL1       -0.1328
     26 F         140.4561  142.5448  169.3383 F       1  UNL1       -0.1328
     27 C         140.1528  143.4035  162.0441 C.3     1  UNL1        0.1417
     28 C         139.4234  143.1997  163.3389 C.3     1  UNL1        0.2285
     29 O         140.0957  142.4864  164.4743 O.3     1  UNL1       -0.4583
     30 C         139.6028  141.1383  164.9099 C.ar    1  UNL1        0.2249
     31 C         139.4585  140.8285  166.3705 C.ar    1  UNL1        0.0577
     32 C         138.9656  139.4804  166.8061 C.ar    1  UNL1        0.0064
     33 C         138.6170  138.4421  165.7812 C.ar    1  UNL1        0.0209
     34 C         138.7612  138.7520  164.3206 C.ar    1  UNL1        0.1021
     35 N         139.2541  140.1000  163.8850 N.ar    1  UNL1       -0.2101
@<TRIPOS>BOND
     1    11    12    2
     2    12    13   am
     3    13    15    1
     4    15    16    1
     5    16    17   ar
     6    17    18   ar
     7    18    19   ar
     8    19    22    1
     9    22    23    1
    10    23    24    1
    11    23    25    1
    12    23    26    1
    13    19    20   ar
    14    20    21   ar
    15    12     1    1
    16     1     2    1
    17     2     3   ar
    18     3     4   ar
    19     4     5   ar
    20     5     6   ar
    21     6     7   ar
    22     7     8    1
    23     8     9    2
    24     8    10   am
    25    10    27    1
    26    27    28    1
    27    28    29    1
    28    29    30    1
    29    30    31   ar
    30    31    32   ar
    31    32    33   ar
    32    33    34   ar
    33    34    35   ar
    34    21    16   ar
    35    10     1    1
    36    35    30   ar
    37     7     2   ar
    38    13    14    1
@<TRIPOS>MOLECULE
*****
 35 38 0 0 0
SMALL
GASTEIGER

@<TRIPOS>ATOM
      1 C         141.9675  137.9127  157.6100 C.3     1  UNL1        0.1752
      2 C         142.3157  136.7400  156.7419 C.ar    1  UNL1        0.0089
      3 C         143.6073  136.0149  156.5053 C.ar    1  UNL1       -0.0021
      4 C         143.6517  134.8512  155.5599 C.ar    1  UNL1       -0.0003
      5 C         142.4046  134.4127  154.8511 C.ar    1  UNL1        0.0001
      6 C         141.1130  135.1378  155.0877 C.ar    1  UNL1        0.0043
      7 C         141.0686  136.3015  156.0331 C.ar    1  UNL1        0.0516
      8 C         139.9496  137.2031  156.4632 C.2     1  UNL1        0.2494
      9 O         138.5252  137.1230  156.0000 O.2     1  UNL1       -0.2699
     10 N         140.5052  138.1989  157.4378 N.am    1  UNL1       -0.2623
     11 O         143.8380  139.6914  157.9050 O.2     1  UNL1       -0.2729
     12 C         142.9152  138.6667  158.4950 C.2     1  UNL1        0.2452
     13 N         142.9401  138.3959  159.9703 N.am    1  UNL1       -0.2988
     14 H         142.3345  137.7233  160.3576 H       1  UNL1        0.1498
     15 C         143.8879  139.1500  160.8553 C.3     1  UNL1        0.1164
     16 C         143.4278  139.6510  162.1921 C.ar    1  UNL1       -0.0024
     17 C         144.1013  139.1735  163.4445 C.ar    1  UNL1        0.0005
     18 C         143.6411  139.6746  164.7813 C.ar    1  UNL1        0.0369
     19 C         142.5074  140.6532  164.8659 C.ar    1  UNL1        0.1468
     20 C         141.8339  141.1307  163.6135 C.ar    1  UNL1        0.0369
     21 C         142.2941  140.6296  162.2766 C.ar    1  UNL1        0.0005
     22 O         142.0473  141.1542  166.2027 O.3     1  UNL1       -0.4045
     23 C         142.9822  141.9440  167.0701 C.3     1  UNL1        0.5753
     24 F         143.9171  142.7337  167.9375 F       1  UNL1       -0.1328
     25 F         142.8277  140.9274  168.1622 F       1  UNL1       -0.1328
     26 F         143.1367  142.9605  165.9780 F       1  UNL1       -0.1328
     27 C         139.7338  139.2894  158.1202 C.3     1  UNL1        0.1417
     28 C         139.4219  139.1846  159.5837 C.3     1  UNL1        0.2285
     29 O         139.8598  137.9777  160.3593 O.3     1  UNL1       -0.4583
     30 C         139.8220  137.9955  161.8588 C.ar    1  UNL1        0.2249
     31 C         140.8923  137.2975  162.6443 C.ar    1  UNL1        0.0577
     32 C         140.8545  137.3152  164.1438 C.ar    1  UNL1        0.0064
     33 C         139.7463  138.0310  164.8576 C.ar    1  UNL1        0.0209
     34 C         138.6760  138.7290  164.0720 C.ar    1  UNL1        0.1021
     35 N         138.7138  138.7112  162.5726 N.ar    1  UNL1       -0.2101
@<TRIPOS>BOND
     1    11    12    2
     2    12    13   am
     3    13    15    1
     4    15    16    1
     5    16    17   ar
     6    17    18   ar
     7    18    19   ar
     8    19    22    1
     9    22    23    1
    10    23    24    1
    11    23    25    1
    12    23    26    1
    13    19    20   ar
    14    20    21   ar
    15    12     1    1
    16     1     2    1
    17     2     3   ar
    18     3     4   ar
    19     4     5   ar
    20     5     6   ar
    21     6     7   ar
    22     7     8    1
    23     8     9    2
    24     8    10   am
    25    10    27    1
    26    27    28    1
    27    28    29    1
    28    29    30    1
    29    30    31   ar
    30    31    32   ar
    31    32    33   ar
    32    33    34   ar
    33    34    35   ar
    34    21    16   ar
    35    10     1    1
    36    35    30   ar
    37     7     2   ar
    38    13    14    1
@<TRIPOS>MOLECULE
*****
 35 38 0 0 0
SMALL
GASTEIGER

@<TRIPOS>ATOM
      1 C         141.7072  140.5151  165.7362 C.3     1  UNL1        0.1752
      2 C         141.4539  140.4549  167.2134 C.ar    1  UNL1        0.0089
      3 C         140.4988  141.1987  168.0991 C.ar    1  UNL1       -0.0021
      4 C         140.4710  140.9204  169.5728 C.ar    1  UNL1       -0.0003
      5 C         141.3981  139.8983  170.1607 C.ar    1  UNL1        0.0001
      6 C         142.3532  139.1545  169.2750 C.ar    1  UNL1        0.0043
      7 C         142.3811  139.4328  167.8013 C.ar    1  UNL1        0.0516
      8 C         143.2074  138.8614  166.6874 C.2     1  UNL1        0.2494
      9 O         144.2646  137.8063  166.8257 O.2     1  UNL1       -0.2699
     10 N         142.7909  139.5303  165.4111 N.am    1  UNL1       -0.2623
     11 O         141.0739  142.8946  164.9074 O.2     1  UNL1       -0.2729
     12 C         141.0008  141.4041  164.7561 C.2     1  UNL1        0.2452
     13 N         140.2211  140.8026  163.6245 N.am    1  UNL1       -0.2988
     14 H         140.1730  139.8243  163.5251 H       1  UNL1        0.1498
     15 C         139.5146  141.6916  162.6444 C.3     1  UNL1        0.1164
     16 C         140.2967  142.4118  161.5863 C.ar    1  UNL1       -0.0024
     17 C         141.1806  141.6406  160.6514 C.ar    1  UNL1        0.0005
     18 C         141.9626  142.3609  159.5933 C.ar    1  UNL1        0.0369
     19 C         141.8608  143.8524  159.4700 C.ar    1  UNL1        0.1468
     20 C         140.9768  144.6236  160.4048 C.ar    1  UNL1        0.0369
     21 C         140.1947  143.9032  161.4630 C.ar    1  UNL1        0.0005
     22 O         142.6428  144.5726  158.4118 O.3     1  UNL1       -0.4045
     23 C         141.9255  145.3276  157.3323 C.3     1  UNL1        0.5753
     24 F         141.2082  146.0827  156.2529 F       1  UNL1       -0.1328
     25 F         142.6875  146.5681  157.6937 F       1  UNL1       -0.1328
     26 F         141.1635  144.0872  156.9710 F       1  UNL1       -0.1328
     27 C         143.3584  139.2615  164.0489 C.3     1  UNL1        0.1417
     28 C         144.7920  139.5910  163.7553 C.3     1  UNL1        0.2285
     29 O         145.1299  140.7865  162.9146 O.3     1  UNL1       -0.4583
     30 C         144.7138  142.1575  163.3589 C.ar    1  UNL1        0.2249
     31 C         144.2261  143.1564  162.3518 C.ar    1  UNL1        0.0577
     32 C         143.8100  144.5274  162.7960 C.ar    1  UNL1        0.0064
     33 C         143.8816  144.8994  164.2474 C.ar    1  UNL1        0.0209
     34 C         144.3694  143.9005  165.2545 C.ar    1  UNL1        0.1021
     35 N         144.7854  142.5295  164.8102 N.ar    1  UNL1       -0.2101
@<TRIPOS>BOND
     1    11    12    2
     2    12    13   am
     3    13    15    1
     4    15    16    1
     5    16    17   ar
     6    17    18   ar
     7    18    19   ar
     8    19    22    1
     9    22    23    1
    10    23    24    1
    11    23    25    1
    12    23    26    1
    13    19    20   ar
    14    20    21   ar
    15    12     1    1
    16     1     2    1
    17     2     3   ar
    18     3     4   ar
    19     4     5   ar
    20     5     6   ar
    21     6     7   ar
    22     7     8    1
    23     8     9    2
    24     8    10   am
    25    10    27    1
    26    27    28    1
    27    28    29    1
    28    29    30    1
    29    30    31   ar
    30    31    32   ar
    31    32    33   ar
    32    33    34   ar
    33    34    35   ar
    34    21    16   ar
    35    10     1    1
    36    35    30   ar
    37     7     2   ar
    38    13    14    1
