@<TRIPOS>MOLECULE
*****
 31 34 0 0 0
SMALL
GASTEIGER

@<TRIPOS>ATOM
      1 C         143.4831  143.2910  161.4556 C.3     1  UNL1        0.0720
      2 C         142.5042  144.0455  160.6056 C.ar    1  UNL1        0.1247
      3 N         142.6555  144.0515  159.1133 N.ar    1  UNL1       -0.2119
      4 C         141.6766  144.8061  158.2632 C.ar    1  UNL1        0.1863
      5 N         141.8278  144.8121  156.7709 N.ar    1  UNL1       -0.2187
      6 C         140.8490  145.5666  155.9209 C.ar    1  UNL1        0.1585
      7 C         139.7189  146.3151  156.5633 C.ar    1  UNL1        0.2496
      8 N         139.5676  146.3091  158.0556 N.ar    1  UNL1       -0.2020
      9 C         140.5465  145.5546  158.9056 C.ar    1  UNL1        0.1760
     10 C         140.3953  145.5486  160.3980 C.ar    1  UNL1        0.2825
     11 O         139.2652  146.2971  161.0403 O.2     1  UNL1       -0.2652
     12 N         141.3742  144.7941  161.2479 N.ar    1  UNL1       -0.2827
     13 O         138.7400  147.0697  155.7132 O.3     1  UNL1       -0.4325
     14 C         139.0273  148.4877  155.3176 C.ar    1  UNL1        0.1745
     15 C         139.7300  148.7779  154.0245 C.ar    1  UNL1        0.0408
     16 C         140.0173  150.1960  153.6289 C.ar    1  UNL1        0.0147
     17 C         139.6019  151.3239  154.5263 C.ar    1  UNL1        0.0601
     18 CL        139.8893  152.7419  154.1307 Cl      1  UNL1       -0.0822
     19 C         138.8993  151.0337  155.8194 C.ar    1  UNL1        0.0442
     20 C         138.6120  149.6156  156.2151 C.ar    1  UNL1        0.1753
     21 F         137.9093  149.3254  157.5081 F       1  UNL1       -0.2009
     22 C         141.2230  144.7880  162.7403 C.3     1  UNL1        0.1115
     23 C         140.0705  144.0671  163.3745 C.3     1  UNL1        0.0388
     24 C         139.0548  144.8311  164.1712 C.3     1  UNL1        0.0048
     25 C         137.9024  144.1101  164.8054 C.3     1  UNL1        0.0174
     26 C         137.7657  142.6252  164.6428 C.3     1  UNL1        0.0720
     27 N         138.7814  141.8613  163.8461 N.3     1  UNL1       -0.2739
     28 C         139.9338  142.5822  163.2119 C.3     1  UNL1        0.0739
     29 C         138.6446  140.3764  163.6835 C.3     1  UNL1        0.0576
     30 C         138.4343  139.5064  164.8872 C.3     1  UNL1        0.0173
     31 C         138.7182  139.7615  162.3173 C.3     1  UNL1        0.0173
@<TRIPOS>BOND
     1     1     2    1
     2     2     3   ar
     3     3     4   ar
     4     4     5   ar
     5     5     6   ar
     6     6     7   ar
     7     7    13    1
     8    13    14    1
     9    14    15   ar
    10    15    16   ar
    11    16    17   ar
    12    17    18    1
    13    17    19   ar
    14    19    20   ar
    15    20    21    1
    16     7     8   ar
    17     8     9   ar
    18     9    10   ar
    19    10    11    2
    20    10    12   ar
    21    12    22    1
    22    23    22    1
    23    23    24    1
    24    24    25    1
    25    25    26    1
    26    26    27    1
    27    27    29    1
    28    29    30    1
    29    29    31    1
    30    27    28    1
    31    12     2   ar
    32    28    23    1
    33     9     4   ar
    34    20    14   ar
@<TRIPOS>MOLECULE
*****
 31 34 0 0 0
SMALL
GASTEIGER

@<TRIPOS>ATOM
      1 C         139.7094  136.9323  154.4697 C.3     1  UNL1        0.0720
      2 C         140.1079  137.3628  155.8503 C.ar    1  UNL1        0.1247
      3 N         139.1789  138.2091  156.6694 N.ar    1  UNL1       -0.2119
      4 C         139.5774  138.6397  158.0500 C.ar    1  UNL1        0.1863
      5 N         138.6485  139.4860  158.8690 N.ar    1  UNL1       -0.2187
      6 C         139.0469  139.9165  160.2495 C.ar    1  UNL1        0.1585
      7 C         140.3743  139.5007  160.8110 C.ar    1  UNL1        0.2496
      8 N         141.3032  138.6545  159.9919 N.ar    1  UNL1       -0.2020
      9 C         140.9047  138.2239  158.6114 C.ar    1  UNL1        0.1760
     10 C         141.8337  137.3776  157.7923 C.ar    1  UNL1        0.2825
     11 O         143.1611  136.9619  158.3538 O.2     1  UNL1       -0.2652
     12 N         141.4352  136.9471  156.4118 N.ar    1  UNL1       -0.2827
     13 O         140.7727  139.9313  162.1916 O.3     1  UNL1       -0.4325
     14 C         139.9676  139.4882  163.3770 C.ar    1  UNL1        0.1745
     15 C         139.1245  140.4789  164.1238 C.ar    1  UNL1        0.0408
     16 C         138.3193  140.0358  165.3093 C.ar    1  UNL1        0.0147
     17 C         138.3572  138.6019  165.7480 C.ar    1  UNL1        0.0601
     18 CL        137.5521  138.1588  166.9334 Cl      1  UNL1       -0.0822
     19 C         139.2003  137.6111  165.0012 C.ar    1  UNL1        0.0442
     20 C         140.0054  138.0542  163.8158 C.ar    1  UNL1        0.1753
     21 F         140.8485  137.0635  163.0690 F       1  UNL1       -0.2009
     22 C         142.3642  136.1008  155.5927 C.3     1  UNL1        0.1115
     23 C         142.3307  134.6070  155.7247 C.3     1  UNL1        0.0388
     24 C         141.2841  133.8133  155.0001 C.3     1  UNL1        0.0048
     25 C         141.2506  132.3195  155.1321 C.3     1  UNL1        0.0174
     26 C         142.2637  131.6194  155.9887 C.3     1  UNL1        0.0720
     27 N         143.3101  132.4130  156.7132 N.3     1  UNL1       -0.2739
     28 C         143.3436  133.9068  156.5812 C.3     1  UNL1        0.0739
     29 C         144.3231  131.7129  157.5697 C.3     1  UNL1        0.0576
     30 C         144.1385  130.2657  157.9186 C.3     1  UNL1        0.0173
     31 C         145.5207  132.4599  158.0774 C.3     1  UNL1        0.0173
@<TRIPOS>BOND
     1     1     2    1
     2     2     3   ar
     3     3     4   ar
     4     4     5   ar
     5     5     6   ar
     6     6     7   ar
     7     7    13    1
     8    13    14    1
     9    14    15   ar
    10    15    16   ar
    11    16    17   ar
    12    17    18    1
    13    17    19   ar
    14    19    20   ar
    15    20    21    1
    16     7     8   ar
    17     8     9   ar
    18     9    10   ar
    19    10    11    2
    20    10    12   ar
    21    12    22    1
    22    23    22    1
    23    23    24    1
    24    24    25    1
    25    25    26    1
    26    26    27    1
    27    27    29    1
    28    29    30    1
    29    29    31    1
    30    27    28    1
    31    12     2   ar
    32    28    23    1
    33     9     4   ar
    34    20    14   ar
@<TRIPOS>MOLECULE
*****
 31 34 0 0 0
SMALL
GASTEIGER

@<TRIPOS>ATOM
      1 C         143.9649  139.3665  164.7089 C.3     1  UNL1        0.0720
      2 C         144.0475  140.1408  163.4269 C.ar    1  UNL1        0.1247
      3 N         143.9854  139.4226  162.1115 N.ar    1  UNL1       -0.2119
      4 C         144.0681  140.1970  160.8295 C.ar    1  UNL1        0.1863
      5 N         144.0059  139.4787  159.5141 N.ar    1  UNL1       -0.2187
      6 C         144.0886  140.2531  158.2322 C.ar    1  UNL1        0.1585
      7 C         144.2333  141.7457  158.2655 C.ar    1  UNL1        0.2496
      8 N         144.2955  142.4640  159.5809 N.ar    1  UNL1       -0.2020
      9 C         144.2128  141.6896  160.8629 C.ar    1  UNL1        0.1760
     10 C         144.2749  142.4078  162.1783 C.ar    1  UNL1        0.2825
     11 O         144.4197  143.9005  162.2117 O.2     1  UNL1       -0.2652
     12 N         144.1923  141.6335  163.4603 N.ar    1  UNL1       -0.2827
     13 O         144.3160  142.5201  156.9835 O.3     1  UNL1       -0.4325
     14 C         145.4536  142.2818  156.0354 C.ar    1  UNL1        0.1745
     15 C         145.1791  141.8131  154.6372 C.ar    1  UNL1        0.0408
     16 C         146.3168  141.5749  153.6890 C.ar    1  UNL1        0.0147
     17 C         147.7290  141.8052  154.1391 C.ar    1  UNL1        0.0601
     18 CL        148.8666  141.5669  153.1910 Cl      1  UNL1       -0.0822
     19 C         148.0035  142.2739  155.5374 C.ar    1  UNL1        0.0442
     20 C         146.8659  142.5121  156.4855 C.ar    1  UNL1        0.1753
     21 F         147.1404  142.9808  157.8837 F       1  UNL1       -0.2009
     22 C         144.2544  142.3517  164.7757 C.3     1  UNL1        0.1115
     23 C         143.0197  142.4837  165.6172 C.3     1  UNL1        0.0388
     24 C         143.0801  142.1951  167.0880 C.3     1  UNL1        0.0048
     25 C         141.8454  142.3270  167.9295 C.3     1  UNL1        0.0174
     26 C         140.5503  142.7475  167.3002 C.3     1  UNL1        0.0720
     27 N         140.4900  143.0361  165.8295 N.3     1  UNL1       -0.2739
     28 C         141.7247  142.9041  164.9880 C.3     1  UNL1        0.0739
     29 C         139.1949  143.4565  165.2003 C.3     1  UNL1        0.0576
     30 C         138.3758  142.4613  164.4331 C.3     1  UNL1        0.0173
     31 C         138.7188  144.8723  165.3383 C.3     1  UNL1        0.0173
@<TRIPOS>BOND
     1     1     2    1
     2     2     3   ar
     3     3     4   ar
     4     4     5   ar
     5     5     6   ar
     6     6     7   ar
     7     7    13    1
     8    13    14    1
     9    14    15   ar
    10    15    16   ar
    11    16    17   ar
    12    17    18    1
    13    17    19   ar
    14    19    20   ar
    15    20    21    1
    16     7     8   ar
    17     8     9   ar
    18     9    10   ar
    19    10    11    2
    20    10    12   ar
    21    12    22    1
    22    23    22    1
    23    23    24    1
    24    24    25    1
    25    25    26    1
    26    26    27    1
    27    27    29    1
    28    29    30    1
    29    29    31    1
    30    27    28    1
    31    12     2   ar
    32    28    23    1
    33     9     4   ar
    34    20    14   ar
@<TRIPOS>MOLECULE
*****
 31 34 0 0 0
SMALL
GASTEIGER

@<TRIPOS>ATOM
      1 C         144.5263  137.9075  155.3234 C.3     1  UNL1        0.0720
      2 C         143.2770  137.9505  156.1525 C.ar    1  UNL1        0.1247
      3 N         143.2814  138.6492  157.4798 N.ar    1  UNL1       -0.2119
      4 C         142.0320  138.6923  158.3089 C.ar    1  UNL1        0.1863
      5 N         142.0364  139.3910  159.6362 N.ar    1  UNL1       -0.2187
      6 C         140.7871  139.4340  160.4652 C.ar    1  UNL1        0.1585
      7 C         139.5334  138.7784  159.9670 C.ar    1  UNL1        0.2496
      8 N         139.5290  138.0797  158.6397 N.ar    1  UNL1       -0.2020
      9 C         140.7783  138.0366  157.8106 C.ar    1  UNL1        0.1760
     10 C         140.7739  137.3379  156.4833 C.ar    1  UNL1        0.2825
     11 O         139.5202  136.6823  155.9850 O.2     1  UNL1       -0.2652
     12 N         142.0232  137.2949  155.6543 N.ar    1  UNL1       -0.2827
     13 O         138.2840  138.8214  160.7961 O.3     1  UNL1       -0.4325
     14 C         138.3783  138.8991  162.2910 C.ar    1  UNL1        0.1745
     15 C         138.8453  137.7091  163.0759 C.ar    1  UNL1        0.0408
     16 C         138.9396  137.7868  164.5710 C.ar    1  UNL1        0.0147
     17 C         138.5669  139.0544  165.2811 C.ar    1  UNL1        0.0601
     18 CL        138.6612  139.1320  166.7761 Cl      1  UNL1       -0.0822
     19 C         138.1000  140.2443  164.4963 C.ar    1  UNL1        0.0442
     20 C         138.0057  140.1667  163.0013 C.ar    1  UNL1        0.1753
     21 F         137.5387  141.3566  162.2164 F       1  UNL1       -0.2009
     22 C         142.0188  136.5962  154.3269 C.3     1  UNL1        0.1115
     23 C         142.3203  135.1288  154.2508 C.3     1  UNL1        0.0388
     24 C         141.8055  134.3160  153.0999 C.3     1  UNL1        0.0048
     25 C         142.1070  132.8486  153.0238 C.3     1  UNL1        0.0174
     26 C         142.9233  132.1939  154.0986 C.3     1  UNL1        0.0720
     27 N         143.4381  133.0066  155.2494 N.3     1  UNL1       -0.2739
     28 C         143.1366  134.4741  155.3255 C.3     1  UNL1        0.0739
     29 C         144.2543  132.3520  156.3241 C.3     1  UNL1        0.0576
     30 C         144.8500  130.9950  156.0919 C.3     1  UNL1        0.0173
     31 C         144.4749  133.0542  157.6311 C.3     1  UNL1        0.0173
@<TRIPOS>BOND
     1     1     2    1
     2     2     3   ar
     3     3     4   ar
     4     4     5   ar
     5     5     6   ar
     6     6     7   ar
     7     7    13    1
     8    13    14    1
     9    14    15   ar
    10    15    16   ar
    11    16    17   ar
    12    17    18    1
    13    17    19   ar
    14    19    20   ar
    15    20    21    1
    16     7     8   ar
    17     8     9   ar
    18     9    10   ar
    19    10    11    2
    20    10    12   ar
    21    12    22    1
    22    23    22    1
    23    23    24    1
    24    24    25    1
    25    25    26    1
    26    26    27    1
    27    27    29    1
    28    29    30    1
    29    29    31    1
    30    27    28    1
    31    12     2   ar
    32    28    23    1
    33     9     4   ar
    34    20    14   ar
@<TRIPOS>MOLECULE
*****
 31 34 0 0 0
SMALL
GASTEIGER

@<TRIPOS>ATOM
      1 C         143.4904  143.4381  162.0628 C.3     1  UNL1        0.0720
      2 C         142.5180  144.1059  161.1362 C.ar    1  UNL1        0.1247
      3 N         142.7306  144.0418  159.6528 N.ar    1  UNL1       -0.2119
      4 C         141.7582  144.7096  158.7262 C.ar    1  UNL1        0.1863
      5 N         141.9708  144.6456  157.2427 N.ar    1  UNL1       -0.2187
      6 C         140.9984  145.3133  156.3162 C.ar    1  UNL1        0.1585
      7 C         139.8134  146.0452  156.8732 C.ar    1  UNL1        0.2496
      8 N         139.6008  146.1093  158.3566 N.ar    1  UNL1       -0.2020
      9 C         140.5732  145.4415  159.2831 C.ar    1  UNL1        0.1760
     10 C         140.3606  145.5056  160.7666 C.ar    1  UNL1        0.2825
     11 O         139.1757  146.2375  161.3236 O.2     1  UNL1       -0.2652
     12 N         141.3330  144.8378  161.6931 N.ar    1  UNL1       -0.2827
     13 O         138.8410  146.7130  155.9466 O.3     1  UNL1       -0.4325
     14 C         139.0418  148.1470  155.5551 C.ar    1  UNL1        0.1745
     15 C         139.6727  148.4832  154.2364 C.ar    1  UNL1        0.0408
     16 C         139.8736  149.9173  153.8450 C.ar    1  UNL1        0.0147
     17 C         139.4435  151.0151  154.7722 C.ar    1  UNL1        0.0601
     18 CL        139.6444  152.4491  154.3808 Cl      1  UNL1       -0.0822
     19 C         138.8126  150.6789  156.0909 C.ar    1  UNL1        0.0442
     20 C         138.6118  149.2449  156.4824 C.ar    1  UNL1        0.1753
     21 F         137.9809  148.9087  157.8011 F       1  UNL1       -0.2009
     22 C         141.1205  144.9019  163.1767 C.3     1  UNL1        0.1115
     23 C         140.3550  143.8155  163.8722 C.3     1  UNL1        0.0388
     24 C         139.1907  143.1624  163.1882 C.3     1  UNL1        0.0048
     25 C         138.4252  142.0760  163.8838 C.3     1  UNL1        0.0174
     26 C         138.8240  141.6427  165.2634 C.3     1  UNL1        0.0720
     27 N         139.9883  142.2958  165.9474 N.3     1  UNL1       -0.2739
     28 C         140.7538  143.3822  165.2518 C.3     1  UNL1        0.0739
     29 C         140.3871  141.8625  167.3269 C.3     1  UNL1        0.0576
     30 C         140.5939  142.8858  168.4040 C.3     1  UNL1        0.0173
     31 C         140.5792  140.4059  167.6294 C.3     1  UNL1        0.0173
@<TRIPOS>BOND
     1     1     2    1
     2     2     3   ar
     3     3     4   ar
     4     4     5   ar
     5     5     6   ar
     6     6     7   ar
     7     7    13    1
     8    13    14    1
     9    14    15   ar
    10    15    16   ar
    11    16    17   ar
    12    17    18    1
    13    17    19   ar
    14    19    20   ar
    15    20    21    1
    16     7     8   ar
    17     8     9   ar
    18     9    10   ar
    19    10    11    2
    20    10    12   ar
    21    12    22    1
    22    23    22    1
    23    23    24    1
    24    24    25    1
    25    25    26    1
    26    26    27    1
    27    27    29    1
    28    29    30    1
    29    29    31    1
    30    27    28    1
    31    12     2   ar
    32    28    23    1
    33     9     4   ar
    34    20    14   ar
@<TRIPOS>MOLECULE
*****
 31 34 0 0 0
SMALL
GASTEIGER

@<TRIPOS>ATOM
      1 C         143.1922  143.9663  164.1279 C.3     1  UNL1        0.0720
      2 C         142.3137  144.1245  162.9223 C.ar    1  UNL1        0.1247
      3 N         142.9175  144.1255  161.5492 N.ar    1  UNL1       -0.2119
      4 C         142.0389  144.2837  160.3437 C.ar    1  UNL1        0.1863
      5 N         142.6427  144.2847  158.9706 N.ar    1  UNL1       -0.2187
      6 C         141.7642  144.4429  157.7652 C.ar    1  UNL1        0.1585
      7 C         140.2819  144.6002  157.9328 C.ar    1  UNL1        0.2496
      8 N         139.6781  144.5992  159.3059 N.ar    1  UNL1       -0.2020
      9 C         140.5566  144.4410  160.5114 C.ar    1  UNL1        0.1760
     10 C         139.9529  144.4400  161.8846 C.ar    1  UNL1        0.2825
     11 O         138.4706  144.5972  162.0522 O.2     1  UNL1       -0.2652
     12 N         140.8314  144.2818  163.0900 N.ar    1  UNL1       -0.2827
     13 O         139.4033  144.7584  156.7273 O.3     1  UNL1       -0.4325
     14 C         139.6165  145.9097  155.7898 C.ar    1  UNL1        0.1745
     15 C         138.9400  147.2231  156.0490 C.ar    1  UNL1        0.0408
     16 C         139.1532  148.3745  155.1114 C.ar    1  UNL1        0.0147
     17 C         140.0429  148.2124  153.9148 C.ar    1  UNL1        0.0601
     18 CL        140.2561  149.3638  152.9773 Cl      1  UNL1       -0.0822
     19 C         140.7195  146.8990  153.6556 C.ar    1  UNL1        0.0442
     20 C         140.5063  145.7477  154.5931 C.ar    1  UNL1        0.1753
     21 F         141.1829  144.4342  154.3339 F       1  UNL1       -0.2009
     22 C         140.2277  144.2808  164.4632 C.3     1  UNL1        0.1115
     23 C         140.0499  142.9883  165.2033 C.3     1  UNL1        0.0388
     24 C         140.3924  142.9058  166.6614 C.3     1  UNL1        0.0048
     25 C         140.2146  141.6133  167.4016 C.3     1  UNL1        0.0174
     26 C         139.6943  140.4033  166.6837 C.3     1  UNL1        0.0720
     27 N         139.3518  140.4859  165.2257 N.3     1  UNL1       -0.2739
     28 C         139.5296  141.7784  164.4855 C.3     1  UNL1        0.0739
     29 C         138.8316  139.2759  164.5078 C.3     1  UNL1        0.0576
     30 C         138.7879  137.9498  165.2075 C.3     1  UNL1        0.0173
     31 C         138.3550  139.3921  163.0902 C.3     1  UNL1        0.0173
@<TRIPOS>BOND
     1     1     2    1
     2     2     3   ar
     3     3     4   ar
     4     4     5   ar
     5     5     6   ar
     6     6     7   ar
     7     7    13    1
     8    13    14    1
     9    14    15   ar
    10    15    16   ar
    11    16    17   ar
    12    17    18    1
    13    17    19   ar
    14    19    20   ar
    15    20    21    1
    16     7     8   ar
    17     8     9   ar
    18     9    10   ar
    19    10    11    2
    20    10    12   ar
    21    12    22    1
    22    23    22    1
    23    23    24    1
    24    24    25    1
    25    25    26    1
    26    26    27    1
    27    27    29    1
    28    29    30    1
    29    29    31    1
    30    27    28    1
    31    12     2   ar
    32    28    23    1
    33     9     4   ar
    34    20    14   ar
@<TRIPOS>MOLECULE
*****
 31 34 0 0 0
SMALL
GASTEIGER

@<TRIPOS>ATOM
      1 C         139.8153  137.0477  154.6138 C.3     1  UNL1        0.0720
      2 C         140.1560  137.5101  155.9995 C.ar    1  UNL1        0.1247
      3 N         139.1687  138.3235  156.7827 N.ar    1  UNL1       -0.2119
      4 C         139.5094  138.7859  158.1685 C.ar    1  UNL1        0.1863
      5 N         138.5220  139.5993  158.9517 N.ar    1  UNL1       -0.2187
      6 C         138.8627  140.0616  160.3373 C.ar    1  UNL1        0.1585
      7 C         140.1908  139.7106  160.9398 C.ar    1  UNL1        0.2496
      8 N         141.1781  138.8971  160.1566 N.ar    1  UNL1       -0.2020
      9 C         140.8374  138.4348  158.7709 C.ar    1  UNL1        0.1760
     10 C         141.8248  137.6213  157.9877 C.ar    1  UNL1        0.2825
     11 O         143.1529  137.2703  158.5901 O.2     1  UNL1       -0.2652
     12 N         141.4841  137.1590  156.6020 N.ar    1  UNL1       -0.2827
     13 O         140.5315  140.1729  162.3255 O.3     1  UNL1       -0.4325
     14 C         139.7709  139.6385  163.5027 C.ar    1  UNL1        0.1745
     15 C         138.9508  140.5660  164.3496 C.ar    1  UNL1        0.0408
     16 C         138.1901  140.0315  165.5268 C.ar    1  UNL1        0.0147
     17 C         138.2496  138.5696  165.8571 C.ar    1  UNL1        0.0601
     18 CL        137.4890  138.0351  167.0343 Cl      1  UNL1       -0.0822
     19 C         139.0698  137.6421  165.0103 C.ar    1  UNL1        0.0442
     20 C         139.8304  138.1765  163.8331 C.ar    1  UNL1        0.1753
     21 F         140.6505  137.2490  162.9862 F       1  UNL1       -0.2009
     22 C         142.4715  136.3455  155.8187 C.3     1  UNL1        0.1115
     23 C         142.4735  134.8503  155.9379 C.3     1  UNL1        0.0388
     24 C         143.3047  134.1832  156.9934 C.3     1  UNL1        0.0048
     25 C         143.3068  132.6879  157.1126 C.3     1  UNL1        0.0174
     26 C         142.4775  131.8598  156.1762 C.3     1  UNL1        0.0720
     27 N         141.6464  132.5269  155.1208 N.3     1  UNL1       -0.2739
     28 C         141.6443  134.0222  155.0016 C.3     1  UNL1        0.0739
     29 C         140.8172  131.6988  154.1845 C.3     1  UNL1        0.0576
     30 C         140.9303  131.9024  152.7027 C.3     1  UNL1        0.0173
     31 C         139.8749  130.6670  154.7300 C.3     1  UNL1        0.0173
@<TRIPOS>BOND
     1     1     2    1
     2     2     3   ar
     3     3     4   ar
     4     4     5   ar
     5     5     6   ar
     6     6     7   ar
     7     7    13    1
     8    13    14    1
     9    14    15   ar
    10    15    16   ar
    11    16    17   ar
    12    17    18    1
    13    17    19   ar
    14    19    20   ar
    15    20    21    1
    16     7     8   ar
    17     8     9   ar
    18     9    10   ar
    19    10    11    2
    20    10    12   ar
    21    12    22    1
    22    23    22    1
    23    23    24    1
    24    24    25    1
    25    25    26    1
    26    26    27    1
    27    27    29    1
    28    29    30    1
    29    29    31    1
    30    27    28    1
    31    12     2   ar
    32    28    23    1
    33     9     4   ar
    34    20    14   ar
@<TRIPOS>MOLECULE
*****
 31 34 0 0 0
SMALL
GASTEIGER

@<TRIPOS>ATOM
      1 C         139.0319  139.4418  163.9119 C.3     1  UNL1        0.0720
      2 C         139.9834  139.0446  162.8224 C.ar    1  UNL1        0.1247
      3 N         139.5058  138.9620  161.4029 N.ar    1  UNL1       -0.2119
      4 C         140.4572  138.5647  160.3133 C.ar    1  UNL1        0.1863
      5 N         139.9797  138.4821  158.8938 N.ar    1  UNL1       -0.2187
      6 C         140.9311  138.0849  157.8044 C.ar    1  UNL1        0.1585
      7 C         142.3601  137.7703  158.1344 C.ar    1  UNL1        0.2496
      8 N         142.8377  137.8529  159.5539 N.ar    1  UNL1       -0.2020
      9 C         141.8863  138.2501  160.6434 C.ar    1  UNL1        0.1760
     10 C         142.3638  138.3327  162.0630 C.ar    1  UNL1        0.2825
     11 O         143.7928  138.0181  162.3930 O.2     1  UNL1       -0.2652
     12 N         141.4124  138.7299  163.1524 N.ar    1  UNL1       -0.2827
     13 O         143.3116  137.3730  157.0449 O.3     1  UNL1       -0.4325
     14 C         143.0738  136.1150  156.2634 C.ar    1  UNL1        0.1745
     15 C         142.7679  136.1896  154.7968 C.ar    1  UNL1        0.0408
     16 C         142.5302  134.9314  154.0154 C.ar    1  UNL1        0.0147
     17 C         142.5984  133.5988  154.7004 C.ar    1  UNL1        0.0601
     18 CL        142.3607  132.3408  153.9190 Cl      1  UNL1       -0.0822
     19 C         142.9044  133.5242  156.1670 C.ar    1  UNL1        0.0442
     20 C         143.1421  134.7823  156.9485 C.ar    1  UNL1        0.1753
     21 F         143.4480  134.7077  158.4151 F       1  UNL1       -0.2009
     22 C         141.8899  138.8126  164.5720 C.3     1  UNL1        0.1115
     23 C         142.4420  140.1019  165.1038 C.3     1  UNL1        0.0388
     24 C         143.2852  140.9764  164.2236 C.3     1  UNL1        0.0048
     25 C         143.8372  142.2658  164.7553 C.3     1  UNL1        0.0174
     26 C         143.5462  142.6807  166.1672 C.3     1  UNL1        0.0720
     27 N         142.7031  141.8062  167.0472 N.3     1  UNL1       -0.2739
     28 C         142.1510  140.5169  166.5155 C.3     1  UNL1        0.0739
     29 C         142.4121  142.2212  168.4590 C.3     1  UNL1        0.0576
     30 C         141.0591  142.7598  168.8187 C.3     1  UNL1        0.0173
     31 C         143.4741  142.0975  169.5111 C.3     1  UNL1        0.0173
@<TRIPOS>BOND
     1     1     2    1
     2     2     3   ar
     3     3     4   ar
     4     4     5   ar
     5     5     6   ar
     6     6     7   ar
     7     7    13    1
     8    13    14    1
     9    14    15   ar
    10    15    16   ar
    11    16    17   ar
    12    17    18    1
    13    17    19   ar
    14    19    20   ar
    15    20    21    1
    16     7     8   ar
    17     8     9   ar
    18     9    10   ar
    19    10    11    2
    20    10    12   ar
    21    12    22    1
    22    23    22    1
    23    23    24    1
    24    24    25    1
    25    25    26    1
    26    26    27    1
    27    27    29    1
    28    29    30    1
    29    29    31    1
    30    27    28    1
    31    12     2   ar
    32    28    23    1
    33     9     4   ar
    34    20    14   ar
@<TRIPOS>MOLECULE
*****
 31 34 0 0 0
SMALL
GASTEIGER

@<TRIPOS>ATOM
      1 C         139.7780  139.6684  156.2103 C.3     1  UNL1        0.0720
      2 C         139.9703  139.2131  157.6266 C.ar    1  UNL1        0.1247
      3 N         138.8567  139.3631  158.6203 N.ar    1  UNL1       -0.2119
      4 C         139.0489  138.9078  160.0366 C.ar    1  UNL1        0.1863
      5 N         137.9354  139.0578  161.0303 N.ar    1  UNL1       -0.2187
      6 C         138.1277  138.6025  162.4465 C.ar    1  UNL1        0.1585
      7 C         139.4335  137.9972  162.8690 C.ar    1  UNL1        0.2496
      8 N         140.5470  137.8472  161.8753 N.ar    1  UNL1       -0.2020
      9 C         140.3547  138.3025  160.4591 C.ar    1  UNL1        0.1760
     10 C         141.4683  138.1525  159.4653 C.ar    1  UNL1        0.2825
     11 O         142.7741  137.5472  159.8878 O.2     1  UNL1       -0.2652
     12 N         141.2761  138.6078  158.0491 N.ar    1  UNL1       -0.2827
     13 O         139.6257  137.5419  164.2853 O.3     1  UNL1       -0.4325
     14 C         140.2632  138.4579  165.2876 C.ar    1  UNL1        0.1745
     15 C         141.7554  138.4827  165.4382 C.ar    1  UNL1        0.0408
     16 C         142.3930  139.3987  166.4405 C.ar    1  UNL1        0.0147
     17 C         141.5383  140.2898  167.2922 C.ar    1  UNL1        0.0601
     18 CL        142.1758  141.2057  168.2944 Cl      1  UNL1       -0.0822
     19 C         140.0461  140.2650  167.1415 C.ar    1  UNL1        0.0442
     20 C         139.4085  139.3490  166.1393 C.ar    1  UNL1        0.1753
     21 F         137.9163  139.3242  165.9887 F       1  UNL1       -0.2009
     22 C         142.3896  138.4578  157.0553 C.3     1  UNL1        0.1115
     23 C         142.4994  137.2067  156.2351 C.3     1  UNL1        0.0388
     24 C         142.2598  137.2567  154.7552 C.3     1  UNL1        0.0048
     25 C         142.3696  136.0056  153.9350 C.3     1  UNL1        0.0174
     26 C         142.7190  134.7045  154.5948 C.3     1  UNL1        0.0720
     27 N         142.9586  134.6546  156.0747 N.3     1  UNL1       -0.2739
     28 C         142.8488  135.9057  156.8948 C.3     1  UNL1        0.0739
     29 C         143.3080  133.3536  156.7344 C.3     1  UNL1        0.0576
     30 C         142.6165  132.0904  156.3148 C.3     1  UNL1        0.0173
     31 C         144.3491  133.3158  157.8137 C.3     1  UNL1        0.0173
@<TRIPOS>BOND
     1     1     2    1
     2     2     3   ar
     3     3     4   ar
     4     4     5   ar
     5     5     6   ar
     6     6     7   ar
     7     7    13    1
     8    13    14    1
     9    14    15   ar
    10    15    16   ar
    11    16    17   ar
    12    17    18    1
    13    17    19   ar
    14    19    20   ar
    15    20    21    1
    16     7     8   ar
    17     8     9   ar
    18     9    10   ar
    19    10    11    2
    20    10    12   ar
    21    12    22    1
    22    23    22    1
    23    23    24    1
    24    24    25    1
    25    25    26    1
    26    26    27    1
    27    27    29    1
    28    29    30    1
    29    29    31    1
    30    27    28    1
    31    12     2   ar
    32    28    23    1
    33     9     4   ar
    34    20    14   ar
