@<TRIPOS>MOLECULE
*****
 24 27 0 0 0
SMALL
GASTEIGER

@<TRIPOS>ATOM
      1 C         138.3278  138.8679  165.7882 C.ar    1  UNL1        0.1477
      2 C         138.7942  137.5236  165.3136 C.ar    1  UNL1        0.0373
      3 C         139.0582  137.2932  163.8551 C.ar    1  UNL1        0.0002
      4 C         138.8557  138.4071  162.8712 C.ar    1  UNL1       -0.0059
      5 C         138.3892  139.7514  163.3457 C.ar    1  UNL1        0.0002
      6 C         138.1253  139.9819  164.8043 C.ar    1  UNL1        0.0373
      7 O         138.0638  139.0983  167.2467 O.3     1  UNL1       -0.4313
      8 C         143.0472  142.2769  167.6298 C.3     1  UNL1        0.0317
      9 C         142.2693  141.9319  168.8651 C.ar    1  UNL1       -0.0112
     10 C         142.7521  142.3923  170.2085 C.ar    1  UNL1        0.0170
     11 C         141.9743  142.0473  171.4437 C.ar    1  UNL1        0.1003
     12 N         140.7135  141.2418  171.3356 N.ar    1  UNL1       -0.2245
     13 C         140.2307  140.7814  169.9922 C.ar    1  UNL1        0.1717
     14 N         139.0329  139.9796  169.5768 N.ar    1  UNL1       -0.1859
     15 C         139.0705  139.8292  168.0848 C.ar    1  UNL1        0.2642
     16 S         140.2915  140.5379  167.5781 S.2     1  UNL1       -0.0270
     17 C         141.0086  141.1264  168.7569 C.ar    1  UNL1        0.0657
     18 C         139.1197  138.1767  161.4126 C.3     1  UNL1        0.0991
     19 N         140.5135  138.3047  160.8733 N.3     1  UNL1       -0.2690
     20 C         141.6821  137.8602  161.7020 C.3     1  UNL1        0.0724
     21 C         143.0759  137.9882  161.1627 C.3     1  UNL1        0.0174
     22 C         143.3011  138.5609  159.7947 C.3     1  UNL1        0.0029
     23 C         142.1325  139.0054  158.9660 C.3     1  UNL1        0.0174
     24 C         140.7387  138.8774  159.5054 C.3     1  UNL1        0.0724
@<TRIPOS>BOND
     1     8     9    1
     2     9    10   ar
     3    10    11   ar
     4    11    12   ar
     5    12    13   ar
     6    13    14   ar
     7    14    15   ar
     8    15     7    1
     9     7     1    1
    10     1     2   ar
    11     2     3   ar
    12     3     4   ar
    13     4    18    1
    14    18    19    1
    15    19    20    1
    16    20    21    1
    17    21    22    1
    18    22    23    1
    19    23    24    1
    20     4     5   ar
    21     5     6   ar
    22    15    16   ar
    23    16    17   ar
    24    17     9   ar
    25    17    13   ar
    26     6     1   ar
    27    24    19    1
@<TRIPOS>MOLECULE
*****
 24 27 0 0 0
SMALL
GASTEIGER

@<TRIPOS>ATOM
      1 C         138.3976  138.8569  165.4920 C.ar    1  UNL1        0.1477
      2 C         138.0123  139.9621  164.5537 C.ar    1  UNL1        0.0373
      3 C         138.2773  139.8245  163.0838 C.ar    1  UNL1        0.0002
      4 C         138.9274  138.5817  162.5520 C.ar    1  UNL1       -0.0059
      5 C         139.3126  137.4766  163.4901 C.ar    1  UNL1        0.0002
      6 C         139.0477  137.6142  164.9602 C.ar    1  UNL1        0.0373
      7 O         138.1327  138.9946  166.9619 O.3     1  UNL1       -0.4313
      8 C         143.0537  142.2466  167.5025 C.3     1  UNL1        0.0317
      9 C         142.2321  141.9053  168.7102 C.ar    1  UNL1       -0.0112
     10 C         142.6550  142.3882  170.0659 C.ar    1  UNL1        0.0170
     11 C         141.8334  142.0469  171.2736 C.ar    1  UNL1        0.1003
     12 N         140.5889  141.2228  171.1256 N.ar    1  UNL1       -0.2245
     13 C         140.1660  140.7399  169.7699 C.ar    1  UNL1        0.1717
     14 N         138.9966  139.9167  169.3174 N.ar    1  UNL1       -0.1859
     15 C         139.0954  139.7492  167.8301 C.ar    1  UNL1        0.2642
     16 S         140.3259  140.4689  167.3634 S.2     1  UNL1       -0.0270
     17 C         140.9876  141.0812  168.5622 C.ar    1  UNL1        0.0657
     18 C         139.1923  138.4441  161.0819 C.3     1  UNL1        0.0991
     19 N         139.3277  139.6687  160.2264 N.3     1  UNL1       -0.2690
     20 C         140.6129  140.4421  160.2218 C.3     1  UNL1        0.0724
     21 C         140.7483  141.6667  159.3663 C.3     1  UNL1        0.0174
     22 C         139.5984  142.1180  158.5153 C.3     1  UNL1        0.0029
     23 C         138.3131  141.3446  158.5199 C.3     1  UNL1        0.0174
     24 C         138.1778  140.1199  159.3754 C.3     1  UNL1        0.0724
@<TRIPOS>BOND
     1     8     9    1
     2     9    10   ar
     3    10    11   ar
     4    11    12   ar
     5    12    13   ar
     6    13    14   ar
     7    14    15   ar
     8    15     7    1
     9     7     1    1
    10     1     2   ar
    11     2     3   ar
    12     3     4   ar
    13     4    18    1
    14    18    19    1
    15    19    20    1
    16    20    21    1
    17    21    22    1
    18    22    23    1
    19    23    24    1
    20     4     5   ar
    21     5     6   ar
    22    15    16   ar
    23    16    17   ar
    24    17     9   ar
    25    17    13   ar
    26     6     1   ar
    27    24    19    1
@<TRIPOS>MOLECULE
*****
 24 27 0 0 0
SMALL
GASTEIGER

@<TRIPOS>ATOM
      1 C         139.3179  143.9034  163.9436 C.ar    1  UNL1        0.1477
      2 C         140.1778  143.8092  165.1691 C.ar    1  UNL1        0.0373
      3 C         140.1278  142.5802  166.0277 C.ar    1  UNL1        0.0002
      4 C         139.2179  141.4455  165.6608 C.ar    1  UNL1       -0.0059
      5 C         138.3580  141.5397  164.4354 C.ar    1  UNL1        0.0002
      6 C         138.4080  142.7687  163.5767 C.ar    1  UNL1        0.0373
      7 O         139.3679  145.1323  163.0850 O.3     1  UNL1       -0.4313
      8 C         143.4161  142.8267  159.4270 C.3     1  UNL1        0.0317
      9 C         142.4615  143.8760  158.9394 C.ar    1  UNL1       -0.0112
     10 C         142.5282  144.3480  157.5172 C.ar    1  UNL1        0.0170
     11 C         141.5736  145.3973  157.0296 C.ar    1  UNL1        0.1003
     12 N         140.5523  145.9746  157.9642 N.ar    1  UNL1       -0.2245
     13 C         140.4855  145.5026  159.3864 C.ar    1  UNL1        0.1717
     14 N         139.5931  145.8847  160.5299 N.ar    1  UNL1       -0.1859
     15 C         139.9961  145.0715  161.7242 C.ar    1  UNL1        0.2642
     16 S         141.1376  144.1869  161.3189 S.2     1  UNL1       -0.0270
     17 C         141.4401  144.4533  159.8740 C.ar    1  UNL1        0.0657
     18 C         139.1679  140.2166  166.5195 C.3     1  UNL1        0.0991
     19 N         140.2591  139.9516  167.5139 N.3     1  UNL1       -0.2690
     20 C         139.9807  140.0723  168.9829 C.3     1  UNL1        0.0724
     21 C         141.0719  139.8073  169.9774 C.3     1  UNL1        0.0174
     22 C         142.4416  139.4216  169.5029 C.3     1  UNL1        0.0029
     23 C         142.7201  139.3009  168.0339 C.3     1  UNL1        0.0174
     24 C         141.6288  139.5659  167.0394 C.3     1  UNL1        0.0724
@<TRIPOS>BOND
     1     8     9    1
     2     9    10   ar
     3    10    11   ar
     4    11    12   ar
     5    12    13   ar
     6    13    14   ar
     7    14    15   ar
     8    15     7    1
     9     7     1    1
    10     1     2   ar
    11     2     3   ar
    12     3     4   ar
    13     4    18    1
    14    18    19    1
    15    19    20    1
    16    20    21    1
    17    21    22    1
    18    22    23    1
    19    23    24    1
    20     4     5   ar
    21     5     6   ar
    22    15    16   ar
    23    16    17   ar
    24    17     9   ar
    25    17    13   ar
    26     6     1   ar
    27    24    19    1
@<TRIPOS>MOLECULE
*****
 24 27 0 0 0
SMALL
GASTEIGER

@<TRIPOS>ATOM
      1 C         139.9942  138.5000  158.2923 C.ar    1  UNL1        0.1477
      2 C         141.3843  138.6309  158.8405 C.ar    1  UNL1        0.0373
      3 C         142.5236  137.9184  158.1739 C.ar    1  UNL1        0.0002
      4 C         142.2727  137.0749  156.9591 C.ar    1  UNL1       -0.0059
      5 C         140.8827  136.9439  156.4109 C.ar    1  UNL1        0.0002
      6 C         139.7434  137.6565  157.0775 C.ar    1  UNL1        0.0373
      7 O         138.8549  139.2125  158.9589 O.3     1  UNL1       -0.4313
      8 C         137.6854  142.1058  163.9933 C.3     1  UNL1        0.0317
      9 C         138.0787  140.6586  164.0226 C.ar    1  UNL1       -0.0112
     10 C         138.1778  139.9347  165.3325 C.ar    1  UNL1        0.0170
     11 C         138.5711  138.4874  165.3618 C.ar    1  UNL1        0.1003
     12 N         138.8651  137.7641  164.0810 N.ar    1  UNL1       -0.2245
     13 C         138.7659  138.4880  162.7711 C.ar    1  UNL1        0.1717
     14 N         138.9944  138.0411  161.3575 N.ar    1  UNL1       -0.1859
     15 C         138.7424  139.2122  160.4547 C.ar    1  UNL1        0.2642
     16 S         138.3582  140.3828  161.3102 S.2     1  UNL1       -0.0270
     17 C         138.3727  139.9353  162.7418 C.ar    1  UNL1        0.0657
     18 C         143.4121  136.3623  156.2925 C.3     1  UNL1        0.0991
     19 N         143.3521  134.8774  156.0897 N.3     1  UNL1       -0.2690
     20 C         143.6452  133.9518  157.2331 C.3     1  UNL1        0.0724
     21 C         143.5852  132.4668  157.0302 C.3     1  UNL1        0.0174
     22 C         143.2322  131.9073  155.6839 C.3     1  UNL1        0.0029
     23 C         142.9391  132.8329  154.5405 C.3     1  UNL1        0.0174
     24 C         142.9991  134.3180  154.7434 C.3     1  UNL1        0.0724
@<TRIPOS>BOND
     1     8     9    1
     2     9    10   ar
     3    10    11   ar
     4    11    12   ar
     5    12    13   ar
     6    13    14   ar
     7    14    15   ar
     8    15     7    1
     9     7     1    1
    10     1     2   ar
    11     2     3   ar
    12     3     4   ar
    13     4    18    1
    14    18    19    1
    15    19    20    1
    16    20    21    1
    17    21    22    1
    18    22    23    1
    19    23    24    1
    20     4     5   ar
    21     5     6   ar
    22    15    16   ar
    23    16    17   ar
    24    17     9   ar
    25    17    13   ar
    26     6     1   ar
    27    24    19    1
@<TRIPOS>MOLECULE
*****
 24 27 0 0 0
SMALL
GASTEIGER

@<TRIPOS>ATOM
      1 C         138.5909  140.1248  164.2624 C.ar    1  UNL1        0.1477
      2 C         138.2695  138.9320  165.1133 C.ar    1  UNL1        0.0373
      3 C         138.6579  138.9176  166.5620 C.ar    1  UNL1        0.0002
      4 C         139.3678  140.0960  167.1599 C.ar    1  UNL1       -0.0059
      5 C         139.6892  141.2888  166.3091 C.ar    1  UNL1        0.0002
      6 C         139.3007  141.3032  164.8603 C.ar    1  UNL1        0.0373
      7 O         138.2024  140.1391  162.8137 O.3     1  UNL1       -0.4313
      8 C         143.5258  137.9644  161.3936 C.3     1  UNL1        0.0317
      9 C         142.4703  138.1366  160.3419 C.ar    1  UNL1       -0.0112
     10 C         142.7595  137.7572  158.9198 C.ar    1  UNL1        0.0170
     11 C         141.7040  137.9295  157.8680 C.ar    1  UNL1        0.1003
     12 N         140.3592  138.4811  158.2383 N.ar    1  UNL1       -0.2245
     13 C         140.0699  138.8605  159.6604 C.ar    1  UNL1        0.1717
     14 N         138.8465  139.4250  160.3196 N.ar    1  UNL1       -0.1859
     15 C         139.1459  139.6016  161.7788 C.ar    1  UNL1        0.2642
     16 S         140.5543  139.1463  162.0214 S.2     1  UNL1       -0.0270
     17 C         141.1255  138.6883  160.7122 C.ar    1  UNL1        0.0657
     18 C         139.7563  140.0816  168.6087 C.3     1  UNL1        0.0991
     19 N         140.8140  141.0191  169.1110 N.3     1  UNL1       -0.2690
     20 C         142.2442  140.5716  169.1742 C.3     1  UNL1        0.0724
     21 C         143.3019  141.5091  169.6765 C.3     1  UNL1        0.0174
     22 C         142.9294  142.8943  170.1155 C.3     1  UNL1        0.0029
     23 C         141.4991  143.3418  170.0522 C.3     1  UNL1        0.0174
     24 C         140.4414  142.4042  169.5499 C.3     1  UNL1        0.0724
@<TRIPOS>BOND
     1     8     9    1
     2     9    10   ar
     3    10    11   ar
     4    11    12   ar
     5    12    13   ar
     6    13    14   ar
     7    14    15   ar
     8    15     7    1
     9     7     1    1
    10     1     2   ar
    11     2     3   ar
    12     3     4   ar
    13     4    18    1
    14    18    19    1
    15    19    20    1
    16    20    21    1
    17    21    22    1
    18    22    23    1
    19    23    24    1
    20     4     5   ar
    21     5     6   ar
    22    15    16   ar
    23    16    17   ar
    24    17     9   ar
    25    17    13   ar
    26     6     1   ar
    27    24    19    1
@<TRIPOS>MOLECULE
*****
 24 27 0 0 0
SMALL
GASTEIGER

@<TRIPOS>ATOM
      1 C         144.1049  141.9052  164.2275 C.ar    1  UNL1        0.1477
      2 C         144.1605  140.4128  164.0874 C.ar    1  UNL1        0.0373
      3 C         143.6546  139.5361  165.1945 C.ar    1  UNL1        0.0002
      4 C         143.0931  140.1519  166.4417 C.ar    1  UNL1       -0.0059
      5 C         143.0375  141.6443  166.5819 C.ar    1  UNL1        0.0002
      6 C         143.5434  142.5210  165.4748 C.ar    1  UNL1        0.0373
      7 O         144.6107  142.7818  163.1205 O.3     1  UNL1       -0.4313
      8 C         139.9330  146.0964  161.6314 C.3     1  UNL1        0.0317
      9 C         140.6611  145.2986  160.5905 C.ar    1  UNL1       -0.0112
     10 C         140.2058  145.3369  159.1618 C.ar    1  UNL1        0.0170
     11 C         140.9339  144.5392  158.1209 C.ar    1  UNL1        0.1003
     12 N         142.1173  143.7031  158.5087 N.ar    1  UNL1       -0.2245
     13 C         142.5726  143.6647  159.9374 C.ar    1  UNL1        0.1717
     14 N         143.6974  142.9381  160.6132 N.ar    1  UNL1       -0.1859
     15 C         143.6646  143.2867  162.0717 C.ar    1  UNL1        0.2642
     16 S         142.5194  144.2288  162.2973 S.2     1  UNL1       -0.0270
     17 C         141.8445  144.4625  160.9783 C.ar    1  UNL1        0.0657
     18 C         142.5873  139.2752  167.5488 C.3     1  UNL1        0.0991
     19 N         141.8736  139.8827  168.7199 N.3     1  UNL1       -0.2690
     20 C         142.6470  140.2990  169.9359 C.3     1  UNL1        0.0724
     21 C         141.9334  140.9065  171.1070 C.3     1  UNL1        0.0174
     22 C         140.4462  141.0976  171.0623 C.3     1  UNL1        0.0029
     23 C         139.6728  140.6813  169.8463 C.3     1  UNL1        0.0174
     24 C         140.3865  140.0738  168.6751 C.3     1  UNL1        0.0724
@<TRIPOS>BOND
     1     8     9    1
     2     9    10   ar
     3    10    11   ar
     4    11    12   ar
     5    12    13   ar
     6    13    14   ar
     7    14    15   ar
     8    15     7    1
     9     7     1    1
    10     1     2   ar
    11     2     3   ar
    12     3     4   ar
    13     4    18    1
    14    18    19    1
    15    19    20    1
    16    20    21    1
    17    21    22    1
    18    22    23    1
    19    23    24    1
    20     4     5   ar
    21     5     6   ar
    22    15    16   ar
    23    16    17   ar
    24    17     9   ar
    25    17    13   ar
    26     6     1   ar
    27    24    19    1
@<TRIPOS>MOLECULE
*****
 24 27 0 0 0
SMALL
GASTEIGER

@<TRIPOS>ATOM
      1 C         143.9212  140.1827  163.5941 C.ar    1  UNL1        0.1477
      2 C         143.7629  141.4249  164.4200 C.ar    1  UNL1        0.0373
      3 C         143.2771  141.3273  165.8358 C.ar    1  UNL1        0.0002
      4 C         142.9496  139.9877  166.4257 C.ar    1  UNL1       -0.0059
      5 C         143.1079  138.7455  165.5998 C.ar    1  UNL1        0.0002
      6 C         143.5937  138.8431  164.1840 C.ar    1  UNL1        0.0373
      7 O         144.4070  140.2803  162.1783 O.3     1  UNL1       -0.4313
      8 C         139.1519  139.4451  159.5761 C.3     1  UNL1        0.0317
      9 C         140.3966  138.8568  158.9806 C.ar    1  UNL1       -0.0112
     10 C         140.3156  138.0509  157.7181 C.ar    1  UNL1        0.0170
     11 C         141.5603  137.4626  157.1226 C.ar    1  UNL1        0.1003
     12 N         142.8860  137.6801  157.7896 N.ar    1  UNL1       -0.2245
     13 C         142.9671  138.4860  159.0521 C.ar    1  UNL1        0.1717
     14 N         144.1242  138.8662  159.9277 N.ar    1  UNL1       -0.1859
     15 C         143.5947  139.6894  161.0642 C.ar    1  UNL1        0.2642
     16 S         142.1103  139.8181  160.8912 S.2     1  UNL1       -0.0270
     17 C         141.7224  139.0743  159.6476 C.ar    1  UNL1        0.0657
     18 C         142.4638  139.8901  167.8415 C.3     1  UNL1        0.0991
     19 N         142.0879  141.1328  168.5927 N.3     1  UNL1       -0.2690
     20 C         140.7476  141.7680  168.3689 C.3     1  UNL1        0.0724
     21 C         140.3717  143.0107  169.1201 C.3     1  UNL1        0.0174
     22 C         141.3361  143.6183  170.0952 C.3     1  UNL1        0.0029
     23 C         142.6764  142.9831  170.3191 C.3     1  UNL1        0.0174
     24 C         143.0523  141.7404  169.5678 C.3     1  UNL1        0.0724
@<TRIPOS>BOND
     1     8     9    1
     2     9    10   ar
     3    10    11   ar
     4    11    12   ar
     5    12    13   ar
     6    13    14   ar
     7    14    15   ar
     8    15     7    1
     9     7     1    1
    10     1     2   ar
    11     2     3   ar
    12     3     4   ar
    13     4    18    1
    14    18    19    1
    15    19    20    1
    16    20    21    1
    17    21    22    1
    18    22    23    1
    19    23    24    1
    20     4     5   ar
    21     5     6   ar
    22    15    16   ar
    23    16    17   ar
    24    17     9   ar
    25    17    13   ar
    26     6     1   ar
    27    24    19    1
@<TRIPOS>MOLECULE
*****
 24 27 0 0 0
SMALL
GASTEIGER

@<TRIPOS>ATOM
      1 C         140.5998  137.9316  162.4888 C.ar    1  UNL1        0.1477
      2 C         139.2571  138.5971  162.5563 C.ar    1  UNL1        0.0373
      3 C         138.6703  138.9688  163.8857 C.ar    1  UNL1        0.0002
      4 C         139.4260  138.6751  165.1476 C.ar    1  UNL1       -0.0059
      5 C         140.7686  138.0096  165.0802 C.ar    1  UNL1        0.0002
      6 C         141.3555  137.6379  163.7507 C.ar    1  UNL1        0.0373
      7 O         141.1866  137.5599  161.1593 O.3     1  UNL1       -0.4313
      8 C         143.4641  143.0070  160.6845 C.3     1  UNL1        0.0317
      9 C         143.7457  141.9718  159.6361 C.ar    1  UNL1       -0.0112
     10 C         144.6090  142.3130  158.4579 C.ar    1  UNL1        0.0170
     11 C         144.8906  141.2778  157.4096 C.ar    1  UNL1        0.1003
     12 N         144.3089  139.9013  157.5395 N.ar    1  UNL1       -0.2245
     13 C         143.4456  139.5601  158.7177 C.ar    1  UNL1        0.1717
     14 N         142.7391  138.2970  159.1121 N.ar    1  UNL1       -0.1859
     15 C         142.0209  138.5516  160.4041 C.ar    1  UNL1        0.2642
     16 S         142.2835  139.9720  160.8083 S.2     1  UNL1       -0.0270
     17 C         143.1640  140.5953  159.7660 C.ar    1  UNL1        0.0657
     18 C         138.8391  139.0468  166.4771 C.3     1  UNL1        0.0991
     19 N         139.3987  140.2068  167.2461 N.3     1  UNL1       -0.2690
     20 C         139.9623  141.3892  166.5152 C.3     1  UNL1        0.0724
     21 C         140.5220  142.5492  167.2841 C.3     1  UNL1        0.0174
     22 C         140.5180  142.5267  168.7840 C.3     1  UNL1        0.0029
     23 C         139.9545  141.3442  169.5149 C.3     1  UNL1        0.0174
     24 C         139.3948  140.1842  168.7458 C.3     1  UNL1        0.0724
@<TRIPOS>BOND
     1     8     9    1
     2     9    10   ar
     3    10    11   ar
     4    11    12   ar
     5    12    13   ar
     6    13    14   ar
     7    14    15   ar
     8    15     7    1
     9     7     1    1
    10     1     2   ar
    11     2     3   ar
    12     3     4   ar
    13     4    18    1
    14    18    19    1
    15    19    20    1
    16    20    21    1
    17    21    22    1
    18    22    23    1
    19    23    24    1
    20     4     5   ar
    21     5     6   ar
    22    15    16   ar
    23    16    17   ar
    24    17     9   ar
    25    17    13   ar
    26     6     1   ar
    27    24    19    1
@<TRIPOS>MOLECULE
*****
 24 27 0 0 0
SMALL
GASTEIGER

@<TRIPOS>ATOM
      1 C         140.0942  138.0796  163.9076 C.ar    1  UNL1        0.1477
      2 C         138.7547  138.5507  164.3911 C.ar    1  UNL1        0.0373
      3 C         138.6444  139.2911  165.6909 C.ar    1  UNL1        0.0002
      4 C         139.8736  139.5606  166.5072 C.ar    1  UNL1       -0.0059
      5 C         141.2131  139.0896  166.0238 C.ar    1  UNL1        0.0002
      6 C         141.3235  138.3491  164.7239 C.ar    1  UNL1        0.0373
      7 O         140.2045  137.3392  162.6078 O.3     1  UNL1       -0.4313
      8 C         142.9112  140.0545  158.0928 C.3     1  UNL1        0.0317
      9 C         141.4144  139.9683  158.1403 C.ar    1  UNL1       -0.0112
     10 C         140.5931  140.5719  157.0399 C.ar    1  UNL1        0.0170
     11 C         139.0963  140.4857  157.0874 C.ar    1  UNL1        0.1003
     12 N         138.4209  139.7958  158.2354 N.ar    1  UNL1       -0.2245
     13 C         139.2422  139.1922  159.3358 C.ar    1  UNL1        0.1717
     14 N         138.8599  138.4552  160.5851 N.ar    1  UNL1       -0.1859
     15 C         140.1203  138.0860  161.3097 C.ar    1  UNL1        0.2642
     16 S         141.2816  138.5948  160.5082 S.2     1  UNL1       -0.0270
     17 C         140.7390  139.2784  159.2883 C.ar    1  UNL1        0.0657
     18 C         139.7633  140.3011  167.8071 C.3     1  UNL1        0.0991
     19 N         141.0035  140.7348  168.5308 N.3     1  UNL1       -0.2690
     20 C         141.6895  142.0115  168.1446 C.3     1  UNL1        0.0724
     21 C         142.9297  142.4452  168.8684 C.3     1  UNL1        0.0174
     22 C         143.4839  141.6020  169.9784 C.3     1  UNL1        0.0029
     23 C         142.7979  140.3253  170.3646 C.3     1  UNL1        0.0174
     24 C         141.5576  139.8916  169.6408 C.3     1  UNL1        0.0724
@<TRIPOS>BOND
     1     8     9    1
     2     9    10   ar
     3    10    11   ar
     4    11    12   ar
     5    12    13   ar
     6    13    14   ar
     7    14    15   ar
     8    15     7    1
     9     7     1    1
    10     1     2   ar
    11     2     3   ar
    12     3     4   ar
    13     4    18    1
    14    18    19    1
    15    19    20    1
    16    20    21    1
    17    21    22    1
    18    22    23    1
    19    23    24    1
    20     4     5   ar
    21     5     6   ar
    22    15    16   ar
    23    16    17   ar
    24    17     9   ar
    25    17    13   ar
    26     6     1   ar
    27    24    19    1
