@<TRIPOS>MOLECULE
*****
 24 25 0 0 0
SMALL
GASTEIGER

@<TRIPOS>ATOM
      1 C         139.4373  144.1604  165.2859 C.2     1  UNL1        0.1987
      2 O         138.4283  145.1220  165.8401 O.2     1  UNL1       -0.2865
      3 C         140.0410  144.4028  163.9343 C.ar    1  UNL1        0.0758
      4 C         141.5318  144.4582  163.7777 C.ar    1  UNL1        0.0463
      5 C         142.1354  144.7006  162.4261 C.ar    1  UNL1        0.1727
      6 C         141.2483  144.8877  161.2311 C.ar    1  UNL1        0.1754
      7 C         139.7575  144.8323  161.3877 C.ar    1  UNL1        0.0767
      8 C         139.1539  144.5899  162.7394 C.ar    1  UNL1        0.1399
      9 O         137.6631  144.5345  162.8960 O.3     1  UNL1       -0.5053
     10 H         137.1089  144.6513  162.1495 H       1  UNL1        0.2922
     11 O         143.6262  144.7560  162.2695 O.3     1  UNL1       -0.4684
     12 C         144.4346  143.4943  162.3351 C.3     1  UNL1        0.2526
     13 O         141.8519  145.1302  159.8795 O.3     1  UNL1       -0.4683
     14 C         140.9674  145.4332  158.7066 C.3     1  UNL1        0.2526
     15 C         140.3339  143.1196  167.4912 C.2     1  UNL1        0.0034
     16 C         139.8427  142.9562  166.0833 C.2     1  UNL1        0.0421
     17 C         142.1375  139.7384  168.5227 C.ar    1  UNL1        0.1387
     18 C         141.5501  139.5074  169.8833 C.ar    1  UNL1        0.0369
     19 C         140.5572  140.4805  170.4466 C.ar    1  UNL1        0.0031
     20 C         140.1518  141.6845  169.6493 C.ar    1  UNL1        0.0002
     21 C         140.7393  141.9155  168.2886 C.ar    1  UNL1        0.0031
     22 C         141.7321  140.9424  167.7253 C.ar    1  UNL1        0.0369
     23 C         143.3514  138.6924  166.4775 C.3     1  UNL1        0.2525
     24 O         143.1304  138.7653  167.9593 O.3     1  UNL1       -0.4714
@<TRIPOS>BOND
     1    23    24    1
     2    24    17    1
     3    17    18   ar
     4    18    19   ar
     5    19    20   ar
     6    20    21   ar
     7    21    15    1
     8    15    16    2
     9    16     1    1
    10     1     2    2
    11     1     3    1
    12     3     4   ar
    13     4     5   ar
    14     5    11    1
    15    11    12    1
    16     5     6   ar
    17     6    13    1
    18    13    14    1
    19     6     7   ar
    20     7     8   ar
    21     8     9    1
    22    21    22   ar
    23    22    17   ar
    24     8     3   ar
    25     9    10    1
@<TRIPOS>MOLECULE
*****
 24 25 0 0 0
SMALL
GASTEIGER

@<TRIPOS>ATOM
      1 C         139.4923  144.0959  164.9635 C.2     1  UNL1        0.1987
      2 O         138.4620  145.0572  165.4778 O.2     1  UNL1       -0.2865
      3 C         140.1155  144.3142  163.6167 C.ar    1  UNL1        0.0758
      4 C         141.6071  144.2698  163.4644 C.ar    1  UNL1        0.0463
      5 C         142.2303  144.4881  162.1176 C.ar    1  UNL1        0.1727
      6 C         141.3619  144.7506  160.9230 C.ar    1  UNL1        0.1754
      7 C         139.8703  144.7949  161.0752 C.ar    1  UNL1        0.0767
      8 C         139.2471  144.5767  162.4221 C.ar    1  UNL1        0.1399
      9 O         137.7555  144.6210  162.5744 O.3     1  UNL1       -0.5053
     10 H         137.2131  144.7850  161.8282 H       1  UNL1        0.2922
     11 O         143.7219  144.4437  161.9653 O.3     1  UNL1       -0.4684
     12 C         144.5235  143.4288  162.7250 C.3     1  UNL1        0.2526
     13 O         141.9851  144.9688  159.5761 O.3     1  UNL1       -0.4683
     14 C         142.4059  143.7932  158.7451 C.3     1  UNL1        0.2526
     15 C         140.3025  143.1121  167.2275 C.2     1  UNL1        0.0034
     16 C         139.8993  142.9164  165.7960 C.2     1  UNL1        0.0421
     17 C         140.1479  140.1540  169.8687 C.ar    1  UNL1        0.1387
     18 C         141.5235  139.5736  169.7251 C.ar    1  UNL1        0.0369
     19 C         142.4922  140.1726  168.7490 C.ar    1  UNL1        0.0031
     20 C         142.0852  141.3521  167.9164 C.ar    1  UNL1        0.0002
     21 C         140.7096  141.9326  168.0600 C.ar    1  UNL1        0.0031
     22 C         139.7409  141.3335  169.0362 C.ar    1  UNL1        0.0369
     23 C         137.7077  139.5852  170.5556 C.3     1  UNL1        0.2525
     24 O         139.1792  139.5550  170.8448 O.3     1  UNL1       -0.4714
@<TRIPOS>BOND
     1    23    24    1
     2    24    17    1
     3    17    18   ar
     4    18    19   ar
     5    19    20   ar
     6    20    21   ar
     7    21    15    1
     8    15    16    2
     9    16     1    1
    10     1     2    2
    11     1     3    1
    12     3     4   ar
    13     4     5   ar
    14     5    11    1
    15    11    12    1
    16     5     6   ar
    17     6    13    1
    18    13    14    1
    19     6     7   ar
    20     7     8   ar
    21     8     9    1
    22    21    22   ar
    23    22    17   ar
    24     8     3   ar
    25     9    10    1
@<TRIPOS>MOLECULE
*****
 24 25 0 0 0
SMALL
GASTEIGER

@<TRIPOS>ATOM
      1 C         138.9429  139.8585  164.1678 C.2     1  UNL1        0.1987
      2 O         138.5719  138.5614  163.5122 O.2     1  UNL1       -0.2865
      3 C         139.0874  141.1021  163.3416 C.ar    1  UNL1        0.0758
      4 C         140.4506  141.5787  162.9358 C.ar    1  UNL1        0.0463
      5 C         140.5951  142.8223  162.1096 C.ar    1  UNL1        0.1727
      6 C         139.3764  143.5892  161.6891 C.ar    1  UNL1        0.1754
      7 C         138.0133  143.1126  162.0949 C.ar    1  UNL1        0.0767
      8 C         137.8688  141.8690  162.9211 C.ar    1  UNL1        0.1399
      9 O         136.5057  141.3923  163.3269 O.3     1  UNL1       -0.5053
     10 H         135.7444  141.8714  163.0643 H       1  UNL1        0.2922
     11 O         141.9582  143.2989  161.7038 O.3     1  UNL1       -0.4684
     12 C         142.6911  144.2904  162.5580 C.3     1  UNL1        0.2526
     13 O         139.5210  144.8328  160.8629 O.3     1  UNL1       -0.4683
     14 C         139.6097  146.1720  161.5326 C.3     1  UNL1        0.2526
     15 C         139.7334  141.1519  166.2779 C.2     1  UNL1        0.0034
     16 C         139.1694  139.9121  165.6497 C.2     1  UNL1        0.0421
     17 C         140.9931  142.3746  169.8371 C.ar    1  UNL1        0.1387
     18 C         140.4128  141.3127  170.7234 C.ar    1  UNL1        0.0369
     19 C         139.6060  140.1971  170.1278 C.ar    1  UNL1        0.0031
     20 C         139.3795  140.1435  168.6460 C.ar    1  UNL1        0.0002
     21 C         139.9599  141.2055  167.7598 C.ar    1  UNL1        0.0031
     22 C         140.7666  142.3210  168.3553 C.ar    1  UNL1        0.0369
     23 C         143.2652  143.3007  170.6915 C.3     1  UNL1        0.2525
     24 O         141.7999  143.4901  170.4327 O.3     1  UNL1       -0.4714
@<TRIPOS>BOND
     1    23    24    1
     2    24    17    1
     3    17    18   ar
     4    18    19   ar
     5    19    20   ar
     6    20    21   ar
     7    21    15    1
     8    15    16    2
     9    16     1    1
    10     1     2    2
    11     1     3    1
    12     3     4   ar
    13     4     5   ar
    14     5    11    1
    15    11    12    1
    16     5     6   ar
    17     6    13    1
    18    13    14    1
    19     6     7   ar
    20     7     8   ar
    21     8     9    1
    22    21    22   ar
    23    22    17   ar
    24     8     3   ar
    25     9    10    1
@<TRIPOS>MOLECULE
*****
 24 25 0 0 0
SMALL
GASTEIGER

@<TRIPOS>ATOM
      1 C         144.2376  143.2929  165.4364 C.2     1  UNL1        0.1987
      2 O         145.2669  144.1775  166.0753 O.2     1  UNL1       -0.2865
      3 C         144.1168  143.2409  163.9422 C.ar    1  UNL1        0.0758
      4 C         143.0505  144.0351  163.2478 C.ar    1  UNL1        0.0463
      5 C         142.9297  143.9830  161.7536 C.ar    1  UNL1        0.1727
      6 C         143.8753  143.1367  160.9537 C.ar    1  UNL1        0.1754
      7 C         144.9416  142.3425  161.6481 C.ar    1  UNL1        0.0767
      8 C         145.0624  142.3946  163.1424 C.ar    1  UNL1        0.1399
      9 O         146.1287  141.6004  163.8368 O.3     1  UNL1       -0.5053
     10 H         146.7194  141.0717  163.3372 H       1  UNL1        0.2922
     11 O         141.8634  144.7772  161.0592 O.3     1  UNL1       -0.4684
     12 C         140.7149  145.3380  161.8442 C.3     1  UNL1        0.2526
     13 O         143.7545  143.0846  159.4596 O.3     1  UNL1       -0.4683
     14 C         144.7811  142.3501  158.6493 C.3     1  UNL1        0.2526
     15 C         141.8524  142.4503  166.0288 C.2     1  UNL1        0.0034
     16 C         143.3291  142.4604  166.2918 C.2     1  UNL1        0.0421
     17 C         139.9426  141.0494  169.2132 C.ar    1  UNL1        0.1387
     18 C         139.1270  139.9529  168.5949 C.ar    1  UNL1        0.0369
     19 C         139.2198  139.6888  167.1213 C.ar    1  UNL1        0.0031
     20 C         140.1283  140.5213  166.2659 C.ar    1  UNL1        0.0002
     21 C         140.9439  141.6178  166.8842 C.ar    1  UNL1        0.0031
     22 C         140.8511  141.8819  168.3578 C.ar    1  UNL1        0.0369
     23 C         141.0338  141.8621  171.4265 C.3     1  UNL1        0.2525
     24 O         139.8498  141.3135  170.6869 O.3     1  UNL1       -0.4714
@<TRIPOS>BOND
     1    23    24    1
     2    24    17    1
     3    17    18   ar
     4    18    19   ar
     5    19    20   ar
     6    20    21   ar
     7    21    15    1
     8    15    16    2
     9    16     1    1
    10     1     2    2
    11     1     3    1
    12     3     4   ar
    13     4     5   ar
    14     5    11    1
    15    11    12    1
    16     5     6   ar
    17     6    13    1
    18    13    14    1
    19     6     7   ar
    20     7     8   ar
    21     8     9    1
    22    21    22   ar
    23    22    17   ar
    24     8     3   ar
    25     9    10    1
@<TRIPOS>MOLECULE
*****
 24 25 0 0 0
SMALL
GASTEIGER

@<TRIPOS>ATOM
      1 C         138.6493  138.9668  163.9163 C.2     1  UNL1        0.1987
      2 O         138.6495  137.4927  163.6390 O.2     1  UNL1       -0.2865
      3 C         138.5780  139.9436  162.7802 C.ar    1  UNL1        0.0758
      4 C         138.1952  141.3704  163.0408 C.ar    1  UNL1        0.0463
      5 C         138.1238  142.3472  161.9047 C.ar    1  UNL1        0.1727
      6 C         138.4353  141.8973  160.5080 C.ar    1  UNL1        0.1754
      7 C         138.8181  140.4706  160.2475 C.ar    1  UNL1        0.0767
      8 C         138.8895  139.4937  161.3836 C.ar    1  UNL1        0.1399
      9 O         139.2723  138.0670  161.1231 O.3     1  UNL1       -0.5053
     10 H         139.4669  137.7860  160.2507 H       1  UNL1        0.2922
     11 O         137.7410  143.7739  162.1653 O.3     1  UNL1       -0.4684
     12 C         138.1040  144.4219  163.4685 C.3     1  UNL1        0.2526
     13 O         138.3640  142.8742  159.3720 O.3     1  UNL1       -0.4683
     14 C         139.5853  143.6460  158.9688 C.3     1  UNL1        0.2526
     15 C         140.0320  139.9150  165.9010 C.2     1  UNL1        0.0034
     16 C         138.7205  139.4641  165.3297 C.2     1  UNL1        0.0421
     17 C         141.2507  141.8736  169.1304 C.ar    1  UNL1        0.1387
     18 C         140.2455  141.4069  170.1411 C.ar    1  UNL1        0.0369
     19 C         139.1691  140.4429  169.7385 C.ar    1  UNL1        0.0031
     20 C         139.0980  139.9456  168.3252 C.ar    1  UNL1        0.0002
     21 C         140.1032  140.4123  167.3144 C.ar    1  UNL1        0.0031
     22 C         141.1796  141.3763  167.7170 C.ar    1  UNL1        0.0369
     23 C         143.7290  142.3495  169.7480 C.3     1  UNL1        0.2525
     24 O         142.3271  142.8376  169.5330 O.3     1  UNL1       -0.4714
@<TRIPOS>BOND
     1    23    24    1
     2    24    17    1
     3    17    18   ar
     4    18    19   ar
     5    19    20   ar
     6    20    21   ar
     7    21    15    1
     8    15    16    2
     9    16     1    1
    10     1     2    2
    11     1     3    1
    12     3     4   ar
    13     4     5   ar
    14     5    11    1
    15    11    12    1
    16     5     6   ar
    17     6    13    1
    18    13    14    1
    19     6     7   ar
    20     7     8   ar
    21     8     9    1
    22    21    22   ar
    23    22    17   ar
    24     8     3   ar
    25     9    10    1
@<TRIPOS>MOLECULE
*****
 24 25 0 0 0
SMALL
GASTEIGER

@<TRIPOS>ATOM
      1 C         142.9509  143.4558  164.5669 C.2     1  UNL1        0.1987
      2 O         144.3874  143.8647  164.7058 O.2     1  UNL1       -0.2865
      3 C         142.1545  143.9061  163.3783 C.ar    1  UNL1        0.0758
      4 C         140.6870  144.1824  163.5198 C.ar    1  UNL1        0.0463
      5 C         139.8906  144.6327  162.3312 C.ar    1  UNL1        0.1727
      6 C         140.5617  144.8069  161.0010 C.ar    1  UNL1        0.1754
      7 C         142.0292  144.5306  160.8595 C.ar    1  UNL1        0.0767
      8 C         142.8256  144.0802  162.0482 C.ar    1  UNL1        0.1399
      9 O         144.2932  143.8040  161.9067 O.3     1  UNL1       -0.5053
     10 H         144.7124  143.9127  161.0758 H       1  UNL1        0.2922
     11 O         138.4230  144.9090  162.4727 O.3     1  UNL1       -0.4684
     12 C         137.5850  144.0625  163.3843 C.3     1  UNL1        0.2526
     13 O         139.7653  145.2572  159.8124 O.3     1  UNL1       -0.4683
     14 C         140.1000  144.7388  158.4452 C.3     1  UNL1        0.2526
     15 C         142.9609  142.4441  166.9599 C.2     1  UNL1        0.0034
     16 C         142.3109  142.5965  165.6167 C.2     1  UNL1        0.0421
     17 C         140.3299  140.1217  168.8132 C.ar    1  UNL1        0.1387
     18 C         141.0407  139.8663  170.1092 C.ar    1  UNL1        0.0369
     19 C         142.3915  140.4701  170.3554 C.ar    1  UNL1        0.0031
     20 C         143.0316  141.3294  169.3057 C.ar    1  UNL1        0.0002
     21 C         142.3208  141.5848  168.0097 C.ar    1  UNL1        0.0031
     22 C         140.9700  140.9809  167.7635 C.ar    1  UNL1        0.0369
     23 C         138.5139  139.2679  167.1630 C.3     1  UNL1        0.2525
     24 O         138.9791  139.5178  168.5670 O.3     1  UNL1       -0.4714
@<TRIPOS>BOND
     1    23    24    1
     2    24    17    1
     3    17    18   ar
     4    18    19   ar
     5    19    20   ar
     6    20    21   ar
     7    21    15    1
     8    15    16    2
     9    16     1    1
    10     1     2    2
    11     1     3    1
    12     3     4   ar
    13     4     5   ar
    14     5    11    1
    15    11    12    1
    16     5     6   ar
    17     6    13    1
    18    13    14    1
    19     6     7   ar
    20     7     8   ar
    21     8     9    1
    22    21    22   ar
    23    22    17   ar
    24     8     3   ar
    25     9    10    1
@<TRIPOS>MOLECULE
*****
 24 25 0 0 0
SMALL
GASTEIGER

@<TRIPOS>ATOM
      1 C         138.3572  139.1399  167.1146 C.2     1  UNL1        0.1987
      2 O         137.2775  138.2957  167.7241 O.2     1  UNL1       -0.2865
      3 C         139.3991  139.7716  167.9893 C.ar    1  UNL1        0.0758
      4 C         140.7280  140.1601  167.4121 C.ar    1  UNL1        0.0463
      5 C         141.7699  140.7918  168.2869 C.ar    1  UNL1        0.1727
      6 C         141.4830  141.0350  169.7390 C.ar    1  UNL1        0.1754
      7 C         140.1542  140.6466  170.3162 C.ar    1  UNL1        0.0767
      8 C         139.1122  140.0149  169.4414 C.ar    1  UNL1        0.1399
      9 O         137.7833  139.6264  170.0186 O.3     1  UNL1       -0.5053
     10 H         137.6041  139.7784  170.9257 H       1  UNL1        0.2922
     11 O         143.0988  141.1802  167.7096 O.3     1  UNL1       -0.4684
     12 C         143.2019  142.3646  166.7950 C.3     1  UNL1        0.2526
     13 O         142.5250  141.6667  170.6138 O.3     1  UNL1       -0.4683
     14 C         142.7918  143.1397  170.5183 C.3     1  UNL1        0.2526
     15 C         138.1070  140.7093  165.0592 C.2     1  UNL1        0.0034
     16 C         138.3949  139.3525  165.6301 C.2     1  UNL1        0.0421
     17 C         138.4078  139.9702  161.1716 C.ar    1  UNL1        0.1387
     18 C         138.2201  141.3467  160.6060 C.ar    1  UNL1        0.0369
     19 C         137.9947  142.5108  161.5248 C.ar    1  UNL1        0.0031
     20 C         137.9570  142.2983  163.0091 C.ar    1  UNL1        0.0002
     21 C         138.1447  140.9218  163.5747 C.ar    1  UNL1        0.0031
     22 C         138.3701  139.7578  162.6559 C.ar    1  UNL1        0.0369
     23 C         139.7553  138.8422  159.2580 C.3     1  UNL1        0.2525
     24 O         138.6333  138.8061  160.2528 O.3     1  UNL1       -0.4714
@<TRIPOS>BOND
     1    23    24    1
     2    24    17    1
     3    17    18   ar
     4    18    19   ar
     5    19    20   ar
     6    20    21   ar
     7    21    15    1
     8    15    16    2
     9    16     1    1
    10     1     2    2
    11     1     3    1
    12     3     4   ar
    13     4     5   ar
    14     5    11    1
    15    11    12    1
    16     5     6   ar
    17     6    13    1
    18    13    14    1
    19     6     7   ar
    20     7     8   ar
    21     8     9    1
    22    21    22   ar
    23    22    17   ar
    24     8     3   ar
    25     9    10    1
@<TRIPOS>MOLECULE
*****
 24 25 0 0 0
SMALL
GASTEIGER

@<TRIPOS>ATOM
      1 C         139.0687  143.8030  164.6067 C.2     1  UNL1        0.1987
      2 O         137.6392  144.2217  164.7834 O.2     1  UNL1       -0.2865
      3 C         139.7105  143.8784  163.2531 C.ar    1  UNL1        0.0758
      4 C         141.1790  144.1600  163.1340 C.ar    1  UNL1        0.0463
      5 C         141.8208  144.2354  161.7803 C.ar    1  UNL1        0.1727
      6 C         140.9941  144.0292  160.5458 C.ar    1  UNL1        0.1754
      7 C         139.5256  143.7476  160.6649 C.ar    1  UNL1        0.0767
      8 C         138.8838  143.6722  162.0186 C.ar    1  UNL1        0.1399
      9 O         137.4153  143.3906  162.1378 O.3     1  UNL1       -0.5053
     10 H         136.8989  143.2618  161.3666 H       1  UNL1        0.2922
     11 O         143.2893  144.5170  161.6612 O.3     1  UNL1       -0.4684
     12 C         144.1899  144.3159  162.8437 C.3     1  UNL1        0.2526
     13 O         141.6359  144.1046  159.1921 O.3     1  UNL1       -0.4683
     14 C         141.5948  145.3857  158.4130 C.3     1  UNL1        0.2526
     15 C         140.3949  141.9090  165.7916 C.2     1  UNL1        0.0034
     16 C         139.8564  143.3089  165.7838 C.2     1  UNL1        0.0421
     17 C         142.8990  141.8498  168.8699 C.ar    1  UNL1        0.1387
     18 C         142.7580  140.4268  169.3227 C.ar    1  UNL1        0.0369
     19 C         141.8294  139.4978  168.5984 C.ar    1  UNL1        0.0031
     20 C         141.0417  139.9919  167.4214 C.ar    1  UNL1        0.0002
     21 C         141.1827  141.4149  166.9686 C.ar    1  UNL1        0.0031
     22 C         142.1113  142.3439  167.6929 C.ar    1  UNL1        0.0369
     23 C         143.3626  143.4921  170.8290 C.3     1  UNL1        0.2525
     24 O         143.8277  142.7788  169.5942 O.3     1  UNL1       -0.4714
@<TRIPOS>BOND
     1    23    24    1
     2    24    17    1
     3    17    18   ar
     4    18    19   ar
     5    19    20   ar
     6    20    21   ar
     7    21    15    1
     8    15    16    2
     9    16     1    1
    10     1     2    2
    11     1     3    1
    12     3     4   ar
    13     4     5   ar
    14     5    11    1
    15    11    12    1
    16     5     6   ar
    17     6    13    1
    18    13    14    1
    19     6     7   ar
    20     7     8   ar
    21     8     9    1
    22    21    22   ar
    23    22    17   ar
    24     8     3   ar
    25     9    10    1
@<TRIPOS>MOLECULE
*****
 24 25 0 0 0
SMALL
GASTEIGER

@<TRIPOS>ATOM
      1 C         138.8082  141.9453  163.8388 C.2     1  UNL1        0.1987
      2 O         137.4133  141.5153  163.4932 O.2     1  UNL1       -0.2865
      3 C         139.6264  142.7097  162.8407 C.ar    1  UNL1        0.0758
      4 C         141.0491  142.3143  162.5770 C.ar    1  UNL1        0.0463
      5 C         141.8673  143.0787  161.5789 C.ar    1  UNL1        0.1727
      6 C         141.2627  144.2385  160.8444 C.ar    1  UNL1        0.1754
      7 C         139.8400  144.6339  161.1081 C.ar    1  UNL1        0.0767
      8 C         139.0218  143.8694  162.1062 C.ar    1  UNL1        0.1399
      9 O         137.5990  144.2647  162.3699 O.3     1  UNL1       -0.5053
     10 H         137.2214  144.9892  161.9111 H       1  UNL1        0.2922
     11 O         143.2900  142.6834  161.3152 O.3     1  UNL1       -0.4684
     12 C         144.4072  143.3772  162.0366 C.3     1  UNL1        0.2526
     13 O         142.0808  145.0029  159.8463 O.3     1  UNL1       -0.4683
     14 C         141.4845  145.3872  158.5247 C.3     1  UNL1        0.2526
     15 C         140.0561  142.6767  165.9970 C.2     1  UNL1        0.0034
     16 C         139.3849  141.6108  165.1826 C.2     1  UNL1        0.0421
     17 C         142.1013  140.8119  168.8413 C.ar    1  UNL1        0.1387
     18 C         141.7862  141.6733  170.0281 C.ar    1  UNL1        0.0369
     19 C         140.8944  142.8692  169.8713 C.ar    1  UNL1        0.0031
     20 C         140.3177  143.2037  168.5276 C.ar    1  UNL1        0.0002
     21 C         140.6328  142.3423  167.3408 C.ar    1  UNL1        0.0031
     22 C         141.5246  141.1464  167.4976 C.ar    1  UNL1        0.0369
     23 C         142.7209  138.6144  170.0810 C.3     1  UNL1        0.2525
     24 O         142.9930  139.6160  168.9981 O.3     1  UNL1       -0.4714
@<TRIPOS>BOND
     1    23    24    1
     2    24    17    1
     3    17    18   ar
     4    18    19   ar
     5    19    20   ar
     6    20    21   ar
     7    21    15    1
     8    15    16    2
     9    16     1    1
    10     1     2    2
    11     1     3    1
    12     3     4   ar
    13     4     5   ar
    14     5    11    1
    15    11    12    1
    16     5     6   ar
    17     6    13    1
    18    13    14    1
    19     6     7   ar
    20     7     8   ar
    21     8     9    1
    22    21    22   ar
    23    22    17   ar
    24     8     3   ar
    25     9    10    1
