@<TRIPOS>MOLECULE
*****
 39 44 0 0 0
SMALL
GASTEIGER

@<TRIPOS>ATOM
      1 C         143.9811  143.0393  161.7829 C.3     1  UNL1        0.0933
      2 C         142.9355  143.2327  160.7250 C.3     1  UNL1        0.0290
      3 C         142.4337  142.0555  159.9423 C.3     1  UNL1        0.0231
      4 C         142.9776  140.6849  160.2176 C.3     1  UNL1        0.0881
      5 C         144.0232  140.4915  161.2756 C.3     1  UNL1        0.0231
      6 C         144.5250  141.6687  162.0582 C.3     1  UNL1        0.0290
      7 C         143.2834  141.2995  160.6723 C.3     1  UNL1        0.1599
      8 O         143.7371  142.3639  161.3800 O.3     1  UNL1       -0.3568
      9 N         142.4758  139.5078  159.4350 N.am    1  UNL1       -0.2738
     10 C         141.3118  138.7100  159.9437 C.3     1  UNL1        0.1152
     11 C         143.1379  139.1285  158.1437 C.2     1  UNL1        0.2668
     12 O         144.3019  139.9262  157.6350 O.2     1  UNL1       -0.2683
     13 C         142.6362  137.9513  157.3610 C.ar    1  UNL1        0.1363
     14 C         141.6311  138.1522  156.2657 C.ar    1  UNL1        0.0270
     15 C         141.1293  136.9752  155.4831 C.ar    1  UNL1        0.0415
     16 C         141.6326  135.5970  155.7956 C.ar    1  UNL1        0.1708
     17 C         142.6376  135.3961  156.8908 C.ar    1  UNL1        0.1686
     18 N         143.1394  136.5733  157.6735 N.ar    1  UNL1       -0.2228
     19 N         143.1409  134.0180  157.2034 N.am    1  UNL1       -0.2639
     20 C         142.6391  132.8410  156.4207 C.2     1  UNL1        0.2718
     21 O         143.1423  131.4628  156.7332 O.2     1  UNL1       -0.2707
     22 C         141.6340  133.0419  155.3254 C.3     1  UNL1        0.2898
     23 O         141.1308  134.4199  155.0129 O.3     1  UNL1       -0.4628
     24 H         143.8005  133.8862  157.9222 H       1  UNL1        0.1565
     25 C         144.4829  144.2164  162.5655 C.3     1  UNL1        0.0320
     26 C         143.6815  144.7486  163.7164 C.3     1  UNL1        0.0327
     27 C         139.2159  144.6110  163.1783 C.ar    1  UNL1        0.2250
     28 C         138.3885  143.6775  164.0114 C.ar    1  UNL1        0.0593
     29 C         139.0496  142.7899  165.0238 C.ar    1  UNL1        0.0254
     30 C         140.5381  142.8358  165.2032 C.ar    1  UNL1        0.0990
     31 N         141.1993  141.9481  166.2156 N.ar    1  UNL1       -0.2400
     32 C         142.6878  141.9940  166.3950 C.ar    1  UNL1        0.1281
     33 C         143.5152  142.9275  165.5619 C.ar    1  UNL1        0.1566
     34 F         145.0037  142.9733  165.7413 F       1  UNL1       -0.2028
     35 C         142.8541  143.8151  164.5495 C.ar    1  UNL1        0.0261
     36 C         141.3655  143.7692  164.3701 C.ar    1  UNL1        0.1002
     37 N         140.7044  144.6569  163.3577 N.ar    1  UNL1       -0.2104
     38 C         139.3771  146.4617  161.3620 C.3     1  UNL1        0.2542
     39 O         138.5547  145.4987  162.1659 O.3     1  UNL1       -0.4561
@<TRIPOS>BOND
     1    38    39    1
     2    39    27    1
     3    27    28   ar
     4    28    29   ar
     5    29    30   ar
     6    30    31   ar
     7    31    32   ar
     8    32    33   ar
     9    33    34    1
    10    33    35   ar
    11    35    26    1
    12    26    25    1
    13    25     1    1
    14     1     2    1
    15     2     3    1
    16     3     4    1
    17     4     9    1
    18     9    10    1
    19     9    11   am
    20    11    12    2
    21    11    13    1
    22    13    14   ar
    23    14    15   ar
    24    15    16   ar
    25    16    17   ar
    26    17    18   ar
    27    17    19    1
    28    19    20   am
    29    20    21    2
    30    20    22    1
    31    22    23    1
    32     4     5    1
    33     5     6    1
    34     4     7    1
    35     7     8    1
    36    35    36   ar
    37    36    37   ar
    38    37    27   ar
    39    36    30   ar
    40     6     1    1
    41     8     1    1
    42    18    13   ar
    43    23    16    1
    44    19    24    1
@<TRIPOS>MOLECULE
*****
 39 44 0 0 0
SMALL
GASTEIGER

@<TRIPOS>ATOM
      1 C         139.6437  137.8747  163.9042 C.3     1  UNL1        0.0933
      2 C         141.1241  138.1145  163.9347 C.3     1  UNL1        0.0290
      3 C         141.8741  138.3390  162.6553 C.3     1  UNL1        0.0231
      4 C         141.1437  138.3236  161.3452 C.3     1  UNL1        0.0881
      5 C         139.6633  138.0838  161.3146 C.3     1  UNL1        0.0231
      6 C         138.9133  137.8593  162.5941 C.3     1  UNL1        0.0290
      7 C         140.6898  138.1957  162.0201 C.3     1  UNL1        0.1599
      8 O         140.0116  137.9927  163.1771 O.3     1  UNL1       -0.3568
      9 N         141.8937  138.5481  160.0657 N.am    1  UNL1       -0.2738
     10 C         142.7670  137.4635  159.5080 C.3     1  UNL1        0.1152
     11 C         141.7704  139.8572  159.3439 C.2     1  UNL1        0.2668
     12 O         140.8971  140.9418  159.9016 O.2     1  UNL1       -0.2683
     13 C         142.5204  140.0818  158.0644 C.ar    1  UNL1        0.1363
     14 C         141.8639  139.7862  156.7485 C.ar    1  UNL1        0.0270
     15 C         142.6139  140.0108  155.4690 C.ar    1  UNL1        0.0415
     16 C         144.0204  140.5308  155.5054 C.ar    1  UNL1        0.1708
     17 C         144.6769  140.8264  156.8213 C.ar    1  UNL1        0.1686
     18 N         143.9269  140.6018  158.1008 N.ar    1  UNL1       -0.2228
     19 N         146.0834  141.3464  156.8577 N.am    1  UNL1       -0.2639
     20 C         146.8333  141.5709  155.5782 C.2     1  UNL1        0.2718
     21 O         148.2399  142.0910  155.6146 O.2     1  UNL1       -0.2707
     22 C         146.1768  141.2754  154.2623 C.3     1  UNL1        0.2898
     23 O         144.7703  140.7554  154.2259 O.3     1  UNL1       -0.4628
     24 H         146.5143  141.5404  157.7214 H       1  UNL1        0.1565
     25 C         138.8937  137.6502  165.1836 C.3     1  UNL1        0.0320
     26 C         138.1383  138.7800  165.8184 C.3     1  UNL1        0.0327
     27 C         140.9834  140.2535  168.9781 C.ar    1  UNL1        0.2250
     28 C         141.5245  141.6507  168.9074 C.ar    1  UNL1        0.0593
     29 C         141.1172  142.5568  167.7834 C.ar    1  UNL1        0.0254
     30 C         140.1689  142.0656  166.7302 C.ar    1  UNL1        0.0990
     31 N         139.7616  142.9717  165.6063 N.ar    1  UNL1       -0.2400
     32 C         138.8132  142.4805  164.5531 C.ar    1  UNL1        0.1281
     33 C         138.2721  141.0833  164.6237 C.ar    1  UNL1        0.1566
     34 F         137.3237  140.5921  163.5705 F       1  UNL1       -0.2028
     35 C         138.6794  140.1772  165.7477 C.ar    1  UNL1        0.0261
     36 C         139.6278  140.6684  166.8009 C.ar    1  UNL1        0.1002
     37 N         140.0351  139.7624  167.9248 N.ar    1  UNL1       -0.2104
     38 C         142.8004  138.8417  170.1844 C.3     1  UNL1        0.2542
     39 O         141.3907  139.3475  170.1020 O.3     1  UNL1       -0.4561
@<TRIPOS>BOND
     1    38    39    1
     2    39    27    1
     3    27    28   ar
     4    28    29   ar
     5    29    30   ar
     6    30    31   ar
     7    31    32   ar
     8    32    33   ar
     9    33    34    1
    10    33    35   ar
    11    35    26    1
    12    26    25    1
    13    25     1    1
    14     1     2    1
    15     2     3    1
    16     3     4    1
    17     4     9    1
    18     9    10    1
    19     9    11   am
    20    11    12    2
    21    11    13    1
    22    13    14   ar
    23    14    15   ar
    24    15    16   ar
    25    16    17   ar
    26    17    18   ar
    27    17    19    1
    28    19    20   am
    29    20    21    2
    30    20    22    1
    31    22    23    1
    32     4     5    1
    33     5     6    1
    34     4     7    1
    35     7     8    1
    36    35    36   ar
    37    36    37   ar
    38    37    27   ar
    39    36    30   ar
    40     6     1    1
    41     8     1    1
    42    18    13   ar
    43    23    16    1
    44    19    24    1
@<TRIPOS>MOLECULE
*****
 39 44 0 0 0
SMALL
GASTEIGER

@<TRIPOS>ATOM
      1 C         143.1504  143.3283  161.8002 C.3     1  UNL1        0.0933
      2 C         142.3865  143.4811  160.5184 C.3     1  UNL1        0.0290
      3 C         142.0092  142.2679  159.7210 C.3     1  UNL1        0.0231
      4 C         142.3958  140.9019  160.2055 C.3     1  UNL1        0.0881
      5 C         143.1597  140.7491  161.4873 C.3     1  UNL1        0.0231
      6 C         143.5370  141.9624  162.2847 C.3     1  UNL1        0.0290
      7 C         142.6249  141.5371  160.6767 C.3     1  UNL1        0.1599
      8 O         142.9661  142.6341  161.3977 O.3     1  UNL1       -0.3568
      9 N         142.0185  139.6887  159.4081 N.am    1  UNL1       -0.2738
     10 C         140.7496  138.9517  159.7190 C.3     1  UNL1        0.1152
     11 C         142.9101  139.2126  158.2999 C.2     1  UNL1        0.2668
     12 O         144.1790  139.9496  157.9890 O.2     1  UNL1       -0.2683
     13 C         142.5329  137.9994  157.5024 C.ar    1  UNL1        0.1363
     14 C         141.6075  138.1310  156.3293 C.ar    1  UNL1        0.0270
     15 C         141.2302  136.9178  155.5319 C.ar    1  UNL1        0.0415
     16 C         141.7783  135.5730  155.9076 C.ar    1  UNL1        0.1708
     17 C         142.7037  135.4414  157.0808 C.ar    1  UNL1        0.1686
     18 N         143.0810  136.6546  157.8782 N.ar    1  UNL1       -0.2228
     19 N         143.2518  134.0967  157.4565 N.am    1  UNL1       -0.2639
     20 C         142.8745  132.8836  156.6591 C.2     1  UNL1        0.2718
     21 O         143.4226  131.5387  157.0349 O.2     1  UNL1       -0.2707
     22 C         141.9491  133.0151  155.4859 C.3     1  UNL1        0.2898
     23 O         141.4010  134.3599  155.1102 O.3     1  UNL1       -0.4628
     24 H         143.8591  134.0103  158.2265 H       1  UNL1        0.1565
     25 C         143.5277  144.5415  162.5976 C.3     1  UNL1        0.0320
     26 C         142.5935  145.0710  163.6450 C.3     1  UNL1        0.0327
     27 C         141.7185  141.5713  166.3350 C.ar    1  UNL1        0.2250
     28 C         140.3219  141.0333  166.4355 C.ar    1  UNL1        0.0593
     29 C         139.2170  141.6619  165.6392 C.ar    1  UNL1        0.0254
     30 C         139.5086  142.8284  164.7425 C.ar    1  UNL1        0.0990
     31 N         138.4037  143.4570  163.9463 N.ar    1  UNL1       -0.2400
     32 C         138.6954  144.6236  163.0496 C.ar    1  UNL1        0.1281
     33 C         140.0920  145.1616  162.9491 C.ar    1  UNL1        0.1566
     34 F         140.3837  146.3281  162.0525 F       1  UNL1       -0.2028
     35 C         141.1969  144.5330  163.7454 C.ar    1  UNL1        0.0261
     36 C         140.9052  143.3664  164.6421 C.ar    1  UNL1        0.1002
     37 N         142.0101  142.7378  165.4384 N.ar    1  UNL1       -0.2104
     38 C         142.5556  139.7096  167.9423 C.3     1  UNL1        0.2542
     39 O         142.8234  140.9427  167.1313 O.3     1  UNL1       -0.4561
@<TRIPOS>BOND
     1    38    39    1
     2    39    27    1
     3    27    28   ar
     4    28    29   ar
     5    29    30   ar
     6    30    31   ar
     7    31    32   ar
     8    32    33   ar
     9    33    34    1
    10    33    35   ar
    11    35    26    1
    12    26    25    1
    13    25     1    1
    14     1     2    1
    15     2     3    1
    16     3     4    1
    17     4     9    1
    18     9    10    1
    19     9    11   am
    20    11    12    2
    21    11    13    1
    22    13    14   ar
    23    14    15   ar
    24    15    16   ar
    25    16    17   ar
    26    17    18   ar
    27    17    19    1
    28    19    20   am
    29    20    21    2
    30    20    22    1
    31    22    23    1
    32     4     5    1
    33     5     6    1
    34     4     7    1
    35     7     8    1
    36    35    36   ar
    37    36    37   ar
    38    37    27   ar
    39    36    30   ar
    40     6     1    1
    41     8     1    1
    42    18    13   ar
    43    23    16    1
    44    19    24    1
@<TRIPOS>MOLECULE
*****
 39 44 0 0 0
SMALL
GASTEIGER

@<TRIPOS>ATOM
      1 C         140.0891  145.1477  159.4989 C.3     1  UNL1        0.0933
      2 C         139.6742  143.7062  159.5116 C.3     1  UNL1        0.0290
      3 C         139.4166  143.0114  160.8157 C.3     1  UNL1        0.0231
      4 C         139.5738  143.7579  162.1072 C.3     1  UNL1        0.0881
      5 C         139.9887  145.1994  162.0945 C.3     1  UNL1        0.0231
      6 C         140.2463  145.8942  160.7903 C.3     1  UNL1        0.0290
      7 C         139.7261  144.1811  161.4175 C.3     1  UNL1        0.1599
      8 O         139.9590  144.8095  160.2383 O.3     1  UNL1       -0.3568
      9 N         139.3162  143.0631  163.4113 N.am    1  UNL1       -0.2738
     10 C         137.9417  143.0807  164.0118 C.3     1  UNL1        0.1152
     11 C         140.4330  142.3507  164.1149 C.2     1  UNL1        0.2668
     12 O         141.8074  142.3331  163.5144 O.2     1  UNL1       -0.2683
     13 C         140.1754  141.6558  165.4191 C.ar    1  UNL1        0.1363
     14 C         139.5772  140.2802  165.4307 C.ar    1  UNL1        0.0270
     15 C         139.3196  139.5853  166.7347 C.ar    1  UNL1        0.0415
     16 C         139.6601  140.2659  168.0274 C.ar    1  UNL1        0.1708
     17 C         140.2583  141.6415  168.0159 C.ar    1  UNL1        0.1686
     18 N         140.5159  142.3364  166.7117 N.ar    1  UNL1       -0.2228
     19 N         140.5989  142.3221  169.3084 N.am    1  UNL1       -0.2639
     20 C         140.3413  141.6272  170.6125 C.2     1  UNL1        0.2718
     21 O         140.6818  142.3078  171.9051 O.2     1  UNL1       -0.2707
     22 C         139.7431  140.2516  170.6240 C.3     1  UNL1        0.2898
     23 O         139.4025  139.5710  169.3315 O.3     1  UNL1       -0.4628
     24 H         140.9915  143.2249  169.3008 H       1  UNL1        0.1565
     25 C         140.3467  145.8425  158.1948 C.3     1  UNL1        0.0320
     26 C         141.7366  145.8911  157.6325 C.3     1  UNL1        0.0327
     27 C         143.9930  142.3861  159.3278 C.ar    1  UNL1        0.2250
     28 C         144.4733  141.2932  158.4196 C.ar    1  UNL1        0.0593
     29 C         144.2014  141.3685  156.9464 C.ar    1  UNL1        0.0254
     30 C         143.4493  142.5368  156.3813 C.ar    1  UNL1        0.0990
     31 N         143.1774  142.6122  154.9081 N.ar    1  UNL1       -0.2400
     32 C         142.4253  143.7805  154.3430 C.ar    1  UNL1        0.1281
     33 C         141.9450  144.8735  155.2512 C.ar    1  UNL1        0.1566
     34 F         141.1929  146.0418  154.6861 F       1  UNL1       -0.2028
     35 C         142.2169  144.7981  156.7244 C.ar    1  UNL1        0.0261
     36 C         142.9690  143.6297  157.2895 C.ar    1  UNL1        0.1002
     37 N         143.2409  143.5544  158.7627 N.ar    1  UNL1       -0.2104
     38 C         144.2990  140.9789  161.4902 C.3     1  UNL1        0.2542
     39 O         144.2648  142.3107  160.8010 O.3     1  UNL1       -0.4561
@<TRIPOS>BOND
     1    38    39    1
     2    39    27    1
     3    27    28   ar
     4    28    29   ar
     5    29    30   ar
     6    30    31   ar
     7    31    32   ar
     8    32    33   ar
     9    33    34    1
    10    33    35   ar
    11    35    26    1
    12    26    25    1
    13    25     1    1
    14     1     2    1
    15     2     3    1
    16     3     4    1
    17     4     9    1
    18     9    10    1
    19     9    11   am
    20    11    12    2
    21    11    13    1
    22    13    14   ar
    23    14    15   ar
    24    15    16   ar
    25    16    17   ar
    26    17    18   ar
    27    17    19    1
    28    19    20   am
    29    20    21    2
    30    20    22    1
    31    22    23    1
    32     4     5    1
    33     5     6    1
    34     4     7    1
    35     7     8    1
    36    35    36   ar
    37    36    37   ar
    38    37    27   ar
    39    36    30   ar
    40     6     1    1
    41     8     1    1
    42    18    13   ar
    43    23    16    1
    44    19    24    1
@<TRIPOS>MOLECULE
*****
 39 44 0 0 0
SMALL
GASTEIGER

@<TRIPOS>ATOM
      1 C         138.7248  139.7610  162.5447 C.3     1  UNL1        0.0933
      2 C         138.0033  141.0754  162.5877 C.3     1  UNL1        0.0290
      3 C         138.0964  142.0203  161.4265 C.3     1  UNL1        0.0231
      4 C         138.9109  141.6508  160.2222 C.3     1  UNL1        0.0881
      5 C         139.6324  140.3364  160.1793 C.3     1  UNL1        0.0231
      6 C         139.5394  139.3915  161.3406 C.3     1  UNL1        0.0290
      7 C         138.8898  141.1004  160.8343 C.3     1  UNL1        0.1599
      8 O         138.8057  140.2460  161.8843 O.3     1  UNL1       -0.3568
      9 N         139.0040  142.5957  159.0610 N.am    1  UNL1       -0.2738
     10 C         138.0191  142.4981  157.9339 C.3     1  UNL1        0.1152
     11 C         140.0819  143.6382  159.0270 C.2     1  UNL1        0.2668
     12 O         141.0668  143.7359  160.1542 O.2     1  UNL1       -0.2683
     13 C         140.1750  144.5832  157.8658 C.ar    1  UNL1        0.1363
     14 C         141.0166  144.2286  156.6758 C.ar    1  UNL1        0.0270
     15 C         141.1097  145.1734  155.5146 C.ar    1  UNL1        0.0415
     16 C         140.3612  146.4731  155.5433 C.ar    1  UNL1        0.1708
     17 C         139.5196  146.8277  156.7332 C.ar    1  UNL1        0.1686
     18 N         139.4265  145.8828  157.8945 N.ar    1  UNL1       -0.2228
     19 N         138.7711  148.1273  156.7619 N.am    1  UNL1       -0.2639
     20 C         138.8642  149.0722  155.6007 C.2     1  UNL1        0.2718
     21 O         138.1157  150.3718  155.6294 O.2     1  UNL1       -0.2707
     22 C         139.7058  148.7175  154.4108 C.3     1  UNL1        0.2898
     23 O         140.4543  147.4180  154.3821 O.3     1  UNL1       -0.4628
     24 H         138.2187  148.3601  157.5429 H       1  UNL1        0.1565
     25 C         138.6318  138.8161  163.7060 C.3     1  UNL1        0.0320
     26 C         139.8318  138.5718  164.5722 C.3     1  UNL1        0.0327
     27 C         143.2490  141.4890  164.8228 C.ar    1  UNL1        0.2250
     28 C         143.4528  142.3001  166.0680 C.ar    1  UNL1        0.0593
     29 C         142.5176  142.1388  167.2296 C.ar    1  UNL1        0.0254
     30 C         141.3786  141.1664  167.1461 C.ar    1  UNL1        0.0990
     31 N         140.4434  141.0051  168.3077 N.ar    1  UNL1       -0.2400
     32 C         139.3044  140.0328  168.2242 C.ar    1  UNL1        0.1281
     33 C         139.1005  139.2216  166.9790 C.ar    1  UNL1        0.1566
     34 F         137.9614  138.2492  166.8954 F       1  UNL1       -0.2028
     35 C         140.0357  139.3829  165.8173 C.ar    1  UNL1        0.0261
     36 C         141.1747  140.3553  165.9009 C.ar    1  UNL1        0.1002
     37 N         142.1099  140.5166  164.7393 N.ar    1  UNL1       -0.2104
     38 C         145.6538  141.4115  163.8427 C.3     1  UNL1        0.2542
     39 O         144.1841  141.6503  163.6612 O.3     1  UNL1       -0.4561
@<TRIPOS>BOND
     1    38    39    1
     2    39    27    1
     3    27    28   ar
     4    28    29   ar
     5    29    30   ar
     6    30    31   ar
     7    31    32   ar
     8    32    33   ar
     9    33    34    1
    10    33    35   ar
    11    35    26    1
    12    26    25    1
    13    25     1    1
    14     1     2    1
    15     2     3    1
    16     3     4    1
    17     4     9    1
    18     9    10    1
    19     9    11   am
    20    11    12    2
    21    11    13    1
    22    13    14   ar
    23    14    15   ar
    24    15    16   ar
    25    16    17   ar
    26    17    18   ar
    27    17    19    1
    28    19    20   am
    29    20    21    2
    30    20    22    1
    31    22    23    1
    32     4     5    1
    33     5     6    1
    34     4     7    1
    35     7     8    1
    36    35    36   ar
    37    36    37   ar
    38    37    27   ar
    39    36    30   ar
    40     6     1    1
    41     8     1    1
    42    18    13   ar
    43    23    16    1
    44    19    24    1
@<TRIPOS>MOLECULE
*****
 39 44 0 0 0
SMALL
GASTEIGER

@<TRIPOS>ATOM
      1 C         138.8543  140.1961  162.4385 C.3     1  UNL1        0.0933
      2 C         139.7487  139.8682  161.2798 C.3     1  UNL1        0.0290
      3 C         139.8209  140.7947  160.1024 C.3     1  UNL1        0.0231
      4 C         138.9986  142.0492  160.0836 C.3     1  UNL1        0.0881
      5 C         138.1042  142.3771  161.2423 C.3     1  UNL1        0.0231
      6 C         138.0321  141.4505  162.4197 C.3     1  UNL1        0.0290
      7 C         138.9258  141.5723  160.7508 C.3     1  UNL1        0.1599
      8 O         138.8605  140.7345  161.8155 O.3     1  UNL1       -0.3568
      9 N         139.0708  142.9757  158.9062 N.am    1  UNL1       -0.2738
     10 C         138.1184  142.8072  157.7597 C.3     1  UNL1        0.1152
     11 C         140.0954  144.0708  158.8753 C.2     1  UNL1        0.2668
     12 O         141.0478  144.2393  160.0219 O.2     1  UNL1       -0.2683
     13 C         140.1676  144.9974  157.6979 C.ar    1  UNL1        0.1363
     14 C         140.9703  144.6141  156.4901 C.ar    1  UNL1        0.0270
     15 C         141.0425  145.5406  155.3127 C.ar    1  UNL1        0.0415
     16 C         140.3121  146.8505  155.3431 C.ar    1  UNL1        0.1708
     17 C         139.5095  147.2337  156.5509 C.ar    1  UNL1        0.1686
     18 N         139.4373  146.3072  157.7283 N.ar    1  UNL1       -0.2228
     19 N         138.7791  148.5435  156.5813 N.am    1  UNL1       -0.2639
     20 C         138.8514  149.4700  155.4039 C.2     1  UNL1        0.2718
     21 O         138.1210  150.7799  155.4343 O.2     1  UNL1       -0.2707
     22 C         139.6540  149.0868  154.1961 C.3     1  UNL1        0.2898
     23 O         140.3844  147.7770  154.1657 O.3     1  UNL1       -0.4628
     24 H         138.2523  148.7951  157.3741 H       1  UNL1        0.1565
     25 C         138.7821  139.2696  163.6159 C.3     1  UNL1        0.0320
     26 C         139.5433  139.5880  164.8686 C.3     1  UNL1        0.0327
     27 C         141.3720  143.6789  164.4559 C.ar    1  UNL1        0.2250
     28 C         142.8634  143.8324  164.4088 C.ar    1  UNL1        0.0593
     29 C         143.7452  142.6223  164.4992 C.ar    1  UNL1        0.0254
     30 C         143.1356  141.2587  164.6367 C.ar    1  UNL1        0.0990
     31 N         144.0174  140.0487  164.7271 N.ar    1  UNL1       -0.2400
     32 C         143.4079  138.6851  164.8647 C.ar    1  UNL1        0.1281
     33 C         141.9164  138.5315  164.9119 C.ar    1  UNL1        0.1566
     34 F         141.3069  137.1679  165.0494 F       1  UNL1       -0.2028
     35 C         141.0347  139.7415  164.8215 C.ar    1  UNL1        0.0261
     36 C         141.6443  141.1052  164.6839 C.ar    1  UNL1        0.1002
     37 N         140.7625  142.3153  164.5935 N.ar    1  UNL1       -0.2104
     38 C         139.6116  145.0887  163.1664 C.3     1  UNL1        0.2542
     39 O         140.4903  144.8889  164.3655 O.3     1  UNL1       -0.4561
@<TRIPOS>BOND
     1    38    39    1
     2    39    27    1
     3    27    28   ar
     4    28    29   ar
     5    29    30   ar
     6    30    31   ar
     7    31    32   ar
     8    32    33   ar
     9    33    34    1
    10    33    35   ar
    11    35    26    1
    12    26    25    1
    13    25     1    1
    14     1     2    1
    15     2     3    1
    16     3     4    1
    17     4     9    1
    18     9    10    1
    19     9    11   am
    20    11    12    2
    21    11    13    1
    22    13    14   ar
    23    14    15   ar
    24    15    16   ar
    25    16    17   ar
    26    17    18   ar
    27    17    19    1
    28    19    20   am
    29    20    21    2
    30    20    22    1
    31    22    23    1
    32     4     5    1
    33     5     6    1
    34     4     7    1
    35     7     8    1
    36    35    36   ar
    37    36    37   ar
    38    37    27   ar
    39    36    30   ar
    40     6     1    1
    41     8     1    1
    42    18    13   ar
    43    23    16    1
    44    19    24    1
@<TRIPOS>MOLECULE
*****
 39 44 0 0 0
SMALL
GASTEIGER

@<TRIPOS>ATOM
      1 C         139.7744  138.3969  163.5379 C.3     1  UNL1        0.0933
      2 C         139.0730  138.2152  162.2245 C.3     1  UNL1        0.0290
      3 C         139.8307  138.3799  160.9405 C.3     1  UNL1        0.0231
      4 C         141.2899  138.7263  160.9699 C.3     1  UNL1        0.0881
      5 C         141.9913  138.9079  162.2833 C.3     1  UNL1        0.0231
      6 C         141.2335  138.7432  163.5674 C.3     1  UNL1        0.0290
      7 C         140.9167  138.6463  161.6995 C.3     1  UNL1        0.1599
      8 O         140.2316  138.4974  162.8605 O.3     1  UNL1       -0.3568
      9 N         142.0477  138.8910  159.6859 N.am    1  UNL1       -0.2738
     10 C         142.7427  137.7136  159.0689 C.3     1  UNL1        0.1152
     11 C         142.1104  140.2331  159.0190 C.2     1  UNL1        0.2668
     12 O         141.4154  141.4105  159.6361 O.2     1  UNL1       -0.2683
     13 C         142.8682  140.3978  157.7350 C.ar    1  UNL1        0.1363
     14 C         142.1845  140.1482  156.4233 C.ar    1  UNL1        0.0270
     15 C         142.9422  140.3129  155.1393 C.ar    1  UNL1        0.0415
     16 C         144.3836  140.7274  155.1669 C.ar    1  UNL1        0.1708
     17 C         145.0673  140.9770  156.4785 C.ar    1  UNL1        0.1686
     18 N         144.3095  140.8123  157.7626 N.ar    1  UNL1       -0.2228
     19 N         146.5086  141.3915  156.5061 N.am    1  UNL1       -0.2639
     20 C         147.2663  141.5562  155.2221 C.2     1  UNL1        0.2718
     21 O         148.7077  141.9707  155.2496 O.2     1  UNL1       -0.2707
     22 C         146.5826  141.3065  153.9105 C.3     1  UNL1        0.2898
     23 O         145.1413  140.8921  153.8829 O.3     1  UNL1       -0.4628
     24 H         146.9573  141.5554  157.3669 H       1  UNL1        0.1565
     25 C         139.0166  138.2321  164.8219 C.3     1  UNL1        0.0320
     26 C         138.2489  139.3873  165.3932 C.3     1  UNL1        0.0327
     27 C         138.3834  143.1071  162.8644 C.ar    1  UNL1        0.2250
     28 C         139.1123  144.3223  163.3562 C.ar    1  UNL1        0.0593
     29 C         139.7964  144.2976  164.6909 C.ar    1  UNL1        0.0254
     30 C         139.7515  143.0577  165.5338 C.ar    1  UNL1        0.0990
     31 N         140.4356  143.0330  166.8685 N.ar    1  UNL1       -0.2400
     32 C         140.3908  141.7931  167.7115 C.ar    1  UNL1        0.1281
     33 C         139.6618  140.5778  167.2197 C.ar    1  UNL1        0.1566
     34 F         139.6170  139.3379  168.0626 F       1  UNL1       -0.2028
     35 C         138.9778  140.6025  165.8850 C.ar    1  UNL1        0.0261
     36 C         139.0226  141.8425  165.0420 C.ar    1  UNL1        0.1002
     37 N         138.3386  141.8672  163.7073 N.ar    1  UNL1       -0.2104
     38 C         138.1142  142.1696  160.4564 C.3     1  UNL1        0.2542
     39 O         137.6993  143.1318  161.5297 O.3     1  UNL1       -0.4561
@<TRIPOS>BOND
     1    38    39    1
     2    39    27    1
     3    27    28   ar
     4    28    29   ar
     5    29    30   ar
     6    30    31   ar
     7    31    32   ar
     8    32    33   ar
     9    33    34    1
    10    33    35   ar
    11    35    26    1
    12    26    25    1
    13    25     1    1
    14     1     2    1
    15     2     3    1
    16     3     4    1
    17     4     9    1
    18     9    10    1
    19     9    11   am
    20    11    12    2
    21    11    13    1
    22    13    14   ar
    23    14    15   ar
    24    15    16   ar
    25    16    17   ar
    26    17    18   ar
    27    17    19    1
    28    19    20   am
    29    20    21    2
    30    20    22    1
    31    22    23    1
    32     4     5    1
    33     5     6    1
    34     4     7    1
    35     7     8    1
    36    35    36   ar
    37    36    37   ar
    38    37    27   ar
    39    36    30   ar
    40     6     1    1
    41     8     1    1
    42    18    13   ar
    43    23    16    1
    44    19    24    1
@<TRIPOS>MOLECULE
*****
 39 44 0 0 0
SMALL
GASTEIGER

@<TRIPOS>ATOM
      1 C         143.2303  141.1404  164.0924 C.3     1  UNL1        0.0933
      2 C         142.7075  141.9490  162.9422 C.3     1  UNL1        0.0290
      3 C         142.2743  141.2645  161.6798 C.3     1  UNL1        0.0231
      4 C         142.3639  139.7714  161.5674 C.3     1  UNL1        0.0881
      5 C         142.8867  138.9628  162.7176 C.3     1  UNL1        0.0231
      6 C         143.3199  139.6473  163.9801 C.3     1  UNL1        0.0290
      7 C         142.6131  140.1017  162.2793 C.3     1  UNL1        0.1599
      8 O         143.0049  140.7206  163.4208 O.3     1  UNL1       -0.3568
      9 N         141.9307  139.0869  160.3050 N.am    1  UNL1       -0.2738
     10 C         140.5449  138.5234  160.1949 C.3     1  UNL1        0.1152
     11 C         142.8833  138.9659  159.1527 C.2     1  UNL1        0.2668
     12 O         144.2691  139.5293  159.2628 O.2     1  UNL1       -0.2683
     13 C         142.4501  138.2814  157.8902 C.ar    1  UNL1        0.1363
     14 C         141.8396  139.0790  156.7761 C.ar    1  UNL1        0.0270
     15 C         141.4064  138.3945  155.5136 C.ar    1  UNL1        0.0415
     16 C         141.5838  136.9124  155.3652 C.ar    1  UNL1        0.1708
     17 C         142.1943  136.1148  156.4792 C.ar    1  UNL1        0.1686
     18 N         142.6275  136.7993  157.7417 N.ar    1  UNL1       -0.2228
     19 N         142.3716  134.6328  156.3308 N.am    1  UNL1       -0.2639
     20 C         141.9385  133.9484  155.0683 C.2     1  UNL1        0.2718
     21 O         142.1158  132.4662  154.9198 O.2     1  UNL1       -0.2707
     22 C         141.3279  134.7460  153.9543 C.3     1  UNL1        0.2898
     23 O         141.1506  136.2280  154.1027 O.3     1  UNL1       -0.4628
     24 H         142.7723  134.1093  157.0620 H       1  UNL1        0.1565
     25 C         143.6635  141.8249  165.3548 C.3     1  UNL1        0.0320
     26 C         142.6390  142.4187  166.2756 C.3     1  UNL1        0.0327
     27 C         138.8525  140.3912  164.9330 C.ar    1  UNL1        0.2250
     28 C         138.0967  139.5096  165.8824 C.ar    1  UNL1        0.0593
     29 C         138.6030  139.3037  167.2793 C.ar    1  UNL1        0.0254
     30 C         139.8651  139.9795  167.7268 C.ar    1  UNL1        0.0990
     31 N         140.3714  139.7737  169.1237 N.ar    1  UNL1       -0.2400
     32 C         141.6335  140.4495  169.5712 C.ar    1  UNL1        0.1281
     33 C         142.3894  141.3312  168.6218 C.ar    1  UNL1        0.1566
     34 F         143.6515  142.0070  169.0693 F       1  UNL1       -0.2028
     35 C         141.8831  141.5370  167.2249 C.ar    1  UNL1        0.0261
     36 C         140.6209  140.8612  166.7774 C.ar    1  UNL1        0.1002
     37 N         140.1147  141.0670  165.3806 N.ar    1  UNL1       -0.2104
     38 C         137.3879  141.7130  163.2426 C.3     1  UNL1        0.2542
     39 O         138.3463  140.5971  163.5361 O.3     1  UNL1       -0.4561
@<TRIPOS>BOND
     1    38    39    1
     2    39    27    1
     3    27    28   ar
     4    28    29   ar
     5    29    30   ar
     6    30    31   ar
     7    31    32   ar
     8    32    33   ar
     9    33    34    1
    10    33    35   ar
    11    35    26    1
    12    26    25    1
    13    25     1    1
    14     1     2    1
    15     2     3    1
    16     3     4    1
    17     4     9    1
    18     9    10    1
    19     9    11   am
    20    11    12    2
    21    11    13    1
    22    13    14   ar
    23    14    15   ar
    24    15    16   ar
    25    16    17   ar
    26    17    18   ar
    27    17    19    1
    28    19    20   am
    29    20    21    2
    30    20    22    1
    31    22    23    1
    32     4     5    1
    33     5     6    1
    34     4     7    1
    35     7     8    1
    36    35    36   ar
    37    36    37   ar
    38    37    27   ar
    39    36    30   ar
    40     6     1    1
    41     8     1    1
    42    18    13   ar
    43    23    16    1
    44    19    24    1
@<TRIPOS>MOLECULE
*****
 39 44 0 0 0
SMALL
GASTEIGER

@<TRIPOS>ATOM
      1 C         138.5963  139.2381  161.4239 C.3     1  UNL1        0.0933
      2 C         138.0532  140.6080  161.7036 C.3     1  UNL1        0.0290
      3 C         138.1370  141.6767  160.6545 C.3     1  UNL1        0.0231
      4 C         138.7640  141.3755  159.3254 C.3     1  UNL1        0.0881
      5 C         139.3071  140.0055  159.0457 C.3     1  UNL1        0.0231
      6 C         139.2232  138.9368  160.0949 C.3     1  UNL1        0.0290
      7 C         138.7407  140.7575  159.8690 C.3     1  UNL1        0.1599
      8 O         138.6650  139.7911  160.8177 O.3     1  UNL1       -0.3568
      9 N         138.8478  142.4442  158.2763 N.am    1  UNL1       -0.2738
     10 C         137.7650  142.5702  157.2459 C.3     1  UNL1        0.1152
     11 C         140.0144  143.3868  158.2575 C.2     1  UNL1        0.2668
     12 O         141.0972  143.2608  159.2879 O.2     1  UNL1       -0.2683
     13 C         140.0983  144.4556  157.2083 C.ar    1  UNL1        0.1363
     14 C         140.8902  144.2175  155.9568 C.ar    1  UNL1        0.0270
     15 C         140.9741  145.2862  154.9077 C.ar    1  UNL1        0.0415
     16 C         140.2661  146.5931  155.1099 C.ar    1  UNL1        0.1708
     17 C         139.4741  146.8312  156.3614 C.ar    1  UNL1        0.1686
     18 N         139.3903  145.7624  157.4106 N.ar    1  UNL1       -0.2228
     19 N         138.7661  148.1380  156.5637 N.am    1  UNL1       -0.2639
     20 C         138.8500  149.2067  155.5145 C.2     1  UNL1        0.2718
     21 O         138.1420  150.5135  155.7168 O.2     1  UNL1       -0.2707
     22 C         139.6419  148.9686  154.2630 C.3     1  UNL1        0.2898
     23 O         140.3500  147.6618  154.0607 O.3     1  UNL1       -0.4628
     24 H         138.2463  148.2942  157.3851 H       1  UNL1        0.1565
     25 C         138.5124  138.1694  162.4730 C.3     1  UNL1        0.0320
     26 C         139.7660  137.6276  163.0936 C.3     1  UNL1        0.0327
     27 C         143.6446  139.3470  161.5935 C.ar    1  UNL1        0.2250
     28 C         144.4750  140.2178  162.4890 C.ar    1  UNL1        0.0593
     29 C         144.0127  140.5154  163.8845 C.ar    1  UNL1        0.0254
     30 C         142.7199  139.9423  164.3846 C.ar    1  UNL1        0.0990
     31 N         142.2575  140.2400  165.7802 N.ar    1  UNL1       -0.2400
     32 C         140.9647  139.6669  166.2802 C.ar    1  UNL1        0.1281
     33 C         140.1341  138.7960  165.3847 C.ar    1  UNL1        0.1566
     34 F         138.8413  138.2229  165.8848 F       1  UNL1       -0.2028
     35 C         140.5965  138.4984  163.9891 C.ar    1  UNL1        0.0261
     36 C         141.8894  139.0715  163.4891 C.ar    1  UNL1        0.1002
     37 N         142.3517  138.7739  162.0935 N.ar    1  UNL1       -0.2104
     38 C         143.6155  139.8822  159.0513 C.3     1  UNL1        0.2542
     39 O         144.1069  139.0493  160.1979 O.3     1  UNL1       -0.4561
@<TRIPOS>BOND
     1    38    39    1
     2    39    27    1
     3    27    28   ar
     4    28    29   ar
     5    29    30   ar
     6    30    31   ar
     7    31    32   ar
     8    32    33   ar
     9    33    34    1
    10    33    35   ar
    11    35    26    1
    12    26    25    1
    13    25     1    1
    14     1     2    1
    15     2     3    1
    16     3     4    1
    17     4     9    1
    18     9    10    1
    19     9    11   am
    20    11    12    2
    21    11    13    1
    22    13    14   ar
    23    14    15   ar
    24    15    16   ar
    25    16    17   ar
    26    17    18   ar
    27    17    19    1
    28    19    20   am
    29    20    21    2
    30    20    22    1
    31    22    23    1
    32     4     5    1
    33     5     6    1
    34     4     7    1
    35     7     8    1
    36    35    36   ar
    37    36    37   ar
    38    37    27   ar
    39    36    30   ar
    40     6     1    1
    41     8     1    1
    42    18    13   ar
    43    23    16    1
    44    19    24    1
