@<TRIPOS>MOLECULE
*****
 33 37 0 0 0
SMALL
GASTEIGER

@<TRIPOS>ATOM
      1 C         138.7580  139.2309  164.1417 C.ar    1  UNL1        0.0990
      2 C         139.2391  137.9866  163.4560 C.ar    1  UNL1        0.0207
      3 C         139.3437  137.9474  161.9602 C.ar    1  UNL1        0.0032
      4 C         138.9673  139.1524  161.1501 C.ar    1  UNL1        0.0207
      5 C         139.0720  139.1131  159.6543 C.ar    1  UNL1        0.0017
      6 C         138.6956  140.3181  158.8442 C.ar    1  UNL1        0.0032
      7 C         138.2145  141.5625  159.5300 C.ar    1  UNL1        0.0385
      8 C         138.1099  141.6017  161.0258 C.ar    1  UNL1        0.1559
      9 C         138.4863  140.3967  161.8359 C.ar    1  UNL1        0.1151
     10 N         138.3816  140.4360  163.3317 N.ar    1  UNL1       -0.2408
     11 C         140.4487  141.8657  168.8147 C.ar    1  UNL1        0.1432
     12 C         140.8378  142.1900  167.4028 C.ar    1  UNL1        0.0560
     13 C         140.2885  141.3774  166.2680 C.ar    1  UNL1        0.0846
     14 N         139.3501  140.2405  166.5450 N.ar    1  UNL1       -0.2872
     15 C         138.6534  139.2702  165.6376 C.ar    1  UNL1        0.1021
     16 C         137.8337  138.3463  166.4887 C.ar    1  UNL1        0.1195
     17 N         138.0238  138.7454  167.9220 N.ar    1  UNL1       -0.2247
     18 C         138.9610  139.9162  167.9569 C.ar    1  UNL1        0.1509
     19 C         139.5103  140.7287  169.0917 C.ar    1  UNL1        0.0743
     20 O         140.9980  142.6782  169.9495 O.3     1  UNL1       -0.4726
     21 C         142.4755  142.7034  170.2077 C.3     1  UNL1        0.2373
     22 C         143.2896  141.4564  170.0283 C.3     1  UNL1        0.1894
     23 C         142.5342  138.9726  169.9302 C.3     1  UNL1        0.1743
     24 O         142.8889  140.1919  170.7285 O.3     1  UNL1       -0.3471
     25 O         137.6289  142.8460  161.7115 O.3     1  UNL1       -0.4747
     26 C         138.6026  143.7270  162.4366 C.3     1  UNL1        0.2010
     27 C         139.6731  144.4490  161.6733 C.3     1  UNL1        0.0635
     28 C         140.6469  145.3299  162.3984 C.3     1  UNL1        0.0725
     29 N         140.5501  145.4889  163.8868 N.3     1  UNL1       -0.2950
     30 C         139.4795  144.7669  164.6501 C.3     1  UNL1        0.1081
     31 C         138.5057  143.8860  163.9251 C.3     1  UNL1        0.2161
     32 F         137.4352  143.1640  164.6883 F       1  UNL1       -0.2319
     33 H         140.4212  146.4843  164.0688 H       1  UNL1        0.1233
@<TRIPOS>BOND
     1    23    24    1
     2    24    22    1
     3    22    21    1
     4    21    20    1
     5    20    11    1
     6    11    12   ar
     7    12    13   ar
     8    13    14   ar
     9    14    15   ar
    10    15     1    1
    11     1     2   ar
    12     2     3   ar
    13     3     4   ar
    14     4     5   ar
    15     5     6   ar
    16     6     7   ar
    17     7     8   ar
    18     8    25    1
    19    26    25    1
    20    26    27    1
    21    27    28    1
    22    28    29    1
    23    29    30    1
    24    30    31    1
    25    31    32    1
    26     8     9   ar
    27     9    10   ar
    28    15    16   ar
    29    16    17   ar
    30    17    18   ar
    31    18    19   ar
    32    19    11   ar
    33    18    14   ar
    34    10     1   ar
    35     9     4   ar
    36    31    26    1
    37    29    33    1
@<TRIPOS>MOLECULE
*****
 33 37 0 0 0
SMALL
GASTEIGER

@<TRIPOS>ATOM
      1 C         139.1484  139.1693  164.2100 C.ar    1  UNL1        0.0990
      2 C         139.6891  137.9325  163.5560 C.ar    1  UNL1        0.0207
      3 C         139.7252  137.8299  162.0599 C.ar    1  UNL1        0.0032
      4 C         139.2206  138.9641  161.2180 C.ar    1  UNL1        0.0207
      5 C         139.2567  138.8615  159.7219 C.ar    1  UNL1        0.0017
      6 C         138.7521  139.9957  158.8799 C.ar    1  UNL1        0.0032
      7 C         138.2114  141.2326  159.5341 C.ar    1  UNL1        0.0385
      8 C         138.1753  141.3352  161.0301 C.ar    1  UNL1        0.1559
      9 C         138.6799  140.2009  161.8721 C.ar    1  UNL1        0.1151
     10 N         138.6438  140.3035  163.3681 N.ar    1  UNL1       -0.2408
     11 C         142.1329  140.3751  168.8226 C.ar    1  UNL1        0.1432
     12 C         142.6126  140.4055  167.4018 C.ar    1  UNL1        0.0560
     13 C         141.6748  140.0518  166.2858 C.ar    1  UNL1        0.0846
     14 N         140.2573  139.6677  166.5906 N.ar    1  UNL1       -0.2872
     15 C         139.1123  139.2719  165.7061 C.ar    1  UNL1        0.1021
     16 C         137.9248  138.9968  166.5803 C.ar    1  UNL1        0.1195
     17 N         138.3359  139.2226  168.0051 N.ar    1  UNL1       -0.2247
     18 C         139.7775  139.6372  168.0115 C.ar    1  UNL1        0.1509
     19 C         140.7152  139.9908  169.1275 C.ar    1  UNL1        0.0743
     20 O         143.0706  140.7287  169.9386 O.3     1  UNL1       -0.4726
     21 C         143.7000  142.0895  169.9866 C.3     1  UNL1        0.2373
     22 C         142.9242  143.2562  170.5223 C.3     1  UNL1        0.1894
     23 C         140.4669  143.7073  169.8094 C.3     1  UNL1        0.1743
     24 O         141.4521  143.1240  170.7784 O.3     1  UNL1       -0.3471
     25 O         137.6346  142.5720  161.6842 O.3     1  UNL1       -0.4747
     26 C         138.5721  143.5544  162.3214 C.3     1  UNL1        0.2010
     27 C         139.6358  144.2185  161.4983 C.3     1  UNL1        0.0635
     28 C         140.5732  145.2009  162.1355 C.3     1  UNL1        0.0725
     29 N         140.4469  145.5193  163.5958 N.3     1  UNL1       -0.2950
     30 C         139.3832  144.8553  164.4190 C.3     1  UNL1        0.1081
     31 C         138.4458  143.8728  163.7818 C.3     1  UNL1        0.2161
     32 F         137.3821  143.2088  164.6049 F       1  UNL1       -0.2319
     33 H         140.2885  146.5245  163.6654 H       1  UNL1        0.1233
@<TRIPOS>BOND
     1    23    24    1
     2    24    22    1
     3    22    21    1
     4    21    20    1
     5    20    11    1
     6    11    12   ar
     7    12    13   ar
     8    13    14   ar
     9    14    15   ar
    10    15     1    1
    11     1     2   ar
    12     2     3   ar
    13     3     4   ar
    14     4     5   ar
    15     5     6   ar
    16     6     7   ar
    17     7     8   ar
    18     8    25    1
    19    26    25    1
    20    26    27    1
    21    27    28    1
    22    28    29    1
    23    29    30    1
    24    30    31    1
    25    31    32    1
    26     8     9   ar
    27     9    10   ar
    28    15    16   ar
    29    16    17   ar
    30    17    18   ar
    31    18    19   ar
    32    19    11   ar
    33    18    14   ar
    34    10     1   ar
    35     9     4   ar
    36    31    26    1
    37    29    33    1
@<TRIPOS>MOLECULE
*****
 33 37 0 0 0
SMALL
GASTEIGER

@<TRIPOS>ATOM
      1 C         143.0998  141.6026  165.4283 C.ar    1  UNL1        0.0990
      2 C         143.3773  142.4042  166.6653 C.ar    1  UNL1        0.0207
      3 C         142.4765  142.2785  167.8581 C.ar    1  UNL1        0.0032
      4 C         141.2983  141.3513  167.8138 C.ar    1  UNL1        0.0207
      5 C         140.3975  141.2257  169.0067 C.ar    1  UNL1        0.0017
      6 C         139.2192  140.2985  168.9624 C.ar    1  UNL1        0.0032
      7 C         138.9418  139.4968  167.7253 C.ar    1  UNL1        0.0385
      8 C         139.8425  139.6225  166.5325 C.ar    1  UNL1        0.1559
      9 C         141.0208  140.5497  166.5768 C.ar    1  UNL1        0.1151
     10 N         141.9216  140.6753  165.3840 N.ar    1  UNL1       -0.2408
     11 C         143.3628  142.9255  159.9677 C.ar    1  UNL1        0.1432
     12 C         142.1456  142.9409  160.8441 C.ar    1  UNL1        0.0560
     13 C         142.2571  142.5556  162.2895 C.ar    1  UNL1        0.0846
     14 N         143.5859  142.1550  162.8585 N.ar    1  UNL1       -0.2872
     15 C         144.0006  141.7282  164.2354 C.ar    1  UNL1        0.1021
     16 C         145.4742  141.4491  164.2100 C.ar    1  UNL1        0.1195
     17 N         145.9702  141.7033  162.8174 N.ar    1  UNL1       -0.2247
     18 C         144.8032  142.1396  161.9821 C.ar    1  UNL1        0.1509
     19 C         144.6917  142.5249  160.5368 C.ar    1  UNL1        0.0743
     20 O         143.2513  143.3108  158.5224 O.3     1  UNL1       -0.4726
     21 C         142.9784  142.2618  157.4854 C.3     1  UNL1        0.2373
     22 C         144.0410  141.2647  157.1295 C.3     1  UNL1        0.1894
     23 C         143.1749  139.3699  158.6816 C.3     1  UNL1        0.1743
     24 O         144.3143  140.1032  158.0383 O.3     1  UNL1       -0.3471
     25 O         139.5650  138.8209  165.2954 O.3     1  UNL1       -0.4747
     26 C         138.7597  139.4181  164.1797 C.3     1  UNL1        0.2010
     27 C         138.1718  140.7898  164.3299 C.3     1  UNL1        0.0635
     28 C         137.3665  141.3870  163.2142 C.3     1  UNL1        0.0725
     29 N         137.1491  140.6125  161.9482 N.3     1  UNL1       -0.2950
     30 C         137.7370  139.2406  161.7979 C.3     1  UNL1        0.1081
     31 C         138.5424  138.6435  162.9136 C.3     1  UNL1        0.2161
     32 F         139.1303  137.2717  162.7634 F       1  UNL1       -0.2319
     33 H         137.5254  141.1790  161.1881 H       1  UNL1        0.1233
@<TRIPOS>BOND
     1    23    24    1
     2    24    22    1
     3    22    21    1
     4    21    20    1
     5    20    11    1
     6    11    12   ar
     7    12    13   ar
     8    13    14   ar
     9    14    15   ar
    10    15     1    1
    11     1     2   ar
    12     2     3   ar
    13     3     4   ar
    14     4     5   ar
    15     5     6   ar
    16     6     7   ar
    17     7     8   ar
    18     8    25    1
    19    26    25    1
    20    26    27    1
    21    27    28    1
    22    28    29    1
    23    29    30    1
    24    30    31    1
    25    31    32    1
    26     8     9   ar
    27     9    10   ar
    28    15    16   ar
    29    16    17   ar
    30    17    18   ar
    31    18    19   ar
    32    19    11   ar
    33    18    14   ar
    34    10     1   ar
    35     9     4   ar
    36    31    26    1
    37    29    33    1
@<TRIPOS>MOLECULE
*****
 33 37 0 0 0
SMALL
GASTEIGER

@<TRIPOS>ATOM
      1 C         142.9983  141.5786  165.4868 C.ar    1  UNL1        0.0990
      2 C         143.3119  142.3691  166.7224 C.ar    1  UNL1        0.0207
      3 C         142.4359  142.2464  167.9338 C.ar    1  UNL1        0.0032
      4 C         141.2463  141.3331  167.9096 C.ar    1  UNL1        0.0207
      5 C         140.3703  141.2104  169.1211 C.ar    1  UNL1        0.0017
      6 C         139.1806  140.2970  169.0970 C.ar    1  UNL1        0.0032
      7 C         138.8670  139.5064  167.8614 C.ar    1  UNL1        0.0385
      8 C         139.7430  139.6292  166.6500 C.ar    1  UNL1        0.1559
      9 C         140.9326  140.5425  166.6741 C.ar    1  UNL1        0.1151
     10 N         141.8086  140.6652  165.4627 N.ar    1  UNL1       -0.2408
     11 C         143.2563  143.3007  160.1385 C.ar    1  UNL1        0.1432
     12 C         142.0729  143.3775  161.0569 C.ar    1  UNL1        0.0560
     13 C         142.1807  142.8672  162.4633 C.ar    1  UNL1        0.0846
     14 N         143.4719  142.2801  162.9513 N.ar    1  UNL1       -0.2872
     15 C         143.8743  141.7013  164.2754 C.ar    1  UNL1        0.1021
     16 C         145.3064  141.2667  164.1752 C.ar    1  UNL1        0.1195
     17 N         145.7892  141.5770  162.7893 N.ar    1  UNL1       -0.2247
     18 C         144.6553  142.2033  162.0329 C.ar    1  UNL1        0.1509
     19 C         144.5476  142.7135  160.6265 C.ar    1  UNL1        0.0743
     20 O         143.1486  143.8109  158.7321 O.3     1  UNL1       -0.4726
     21 C         141.9301  144.5727  158.3019 C.3     1  UNL1        0.2373
     22 C         142.0489  145.6596  157.2749 C.3     1  UNL1        0.1894
     23 C         139.9365  145.6658  155.7625 C.3     1  UNL1        0.1743
     24 O         140.8175  146.3486  156.7662 O.3     1  UNL1       -0.3471
     25 O         139.4293  138.8386  165.4145 O.3     1  UNL1       -0.4747
     26 C         138.6786  139.4790  164.2847 C.3     1  UNL1        0.2010
     27 C         138.1315  140.8670  164.4393 C.3     1  UNL1        0.0635
     28 C         137.3808  141.5074  163.3096 C.3     1  UNL1        0.0725
     29 N         137.1772  140.7598  162.0252 N.3     1  UNL1       -0.2950
     30 C         137.7244  139.3717  161.8706 C.3     1  UNL1        0.1081
     31 C         138.4751  138.7313  163.0003 C.3     1  UNL1        0.2161
     32 F         139.0222  137.3433  162.8458 F       1  UNL1       -0.2319
     33 H         137.5950  141.3250  161.2861 H       1  UNL1        0.1233
@<TRIPOS>BOND
     1    23    24    1
     2    24    22    1
     3    22    21    1
     4    21    20    1
     5    20    11    1
     6    11    12   ar
     7    12    13   ar
     8    13    14   ar
     9    14    15   ar
    10    15     1    1
    11     1     2   ar
    12     2     3   ar
    13     3     4   ar
    14     4     5   ar
    15     5     6   ar
    16     6     7   ar
    17     7     8   ar
    18     8    25    1
    19    26    25    1
    20    26    27    1
    21    27    28    1
    22    28    29    1
    23    29    30    1
    24    30    31    1
    25    31    32    1
    26     8     9   ar
    27     9    10   ar
    28    15    16   ar
    29    16    17   ar
    30    17    18   ar
    31    18    19   ar
    32    19    11   ar
    33    18    14   ar
    34    10     1   ar
    35     9     4   ar
    36    31    26    1
    37    29    33    1
@<TRIPOS>MOLECULE
*****
 33 37 0 0 0
SMALL
GASTEIGER

@<TRIPOS>ATOM
      1 C         142.9031  140.9229  165.5992 C.ar    1  UNL1        0.0990
      2 C         143.6287  139.6217  165.4248 C.ar    1  UNL1        0.0207
      3 C         144.0322  139.1659  164.0540 C.ar    1  UNL1        0.0032
      4 C         143.7101  140.0112  162.8574 C.ar    1  UNL1        0.0207
      5 C         144.1137  139.5553  161.4865 C.ar    1  UNL1        0.0017
      6 C         143.7916  140.4007  160.2900 C.ar    1  UNL1        0.0032
      7 C         143.0660  141.7019  160.4644 C.ar    1  UNL1        0.0385
      8 C         142.6625  142.1578  161.8353 C.ar    1  UNL1        0.1559
      9 C         142.9846  141.3124  163.0318 C.ar    1  UNL1        0.1151
     10 N         142.5811  141.7682  164.4027 N.ar    1  UNL1       -0.2408
     11 C         139.0416  140.4582  169.6624 C.ar    1  UNL1        0.1432
     12 C         139.0482  139.7561  168.3369 C.ar    1  UNL1        0.0560
     13 C         140.1649  139.9988  167.3652 C.ar    1  UNL1        0.0846
     14 N         141.2749  140.9437  167.7190 N.ar    1  UNL1       -0.2872
     15 C         142.4996  141.3788  166.9701 C.ar    1  UNL1        0.1021
     16 C         143.2498  142.3498  167.8328 C.ar    1  UNL1        0.1195
     17 N         142.4889  142.5148  169.1149 N.ar    1  UNL1       -0.2247
     18 C         141.2682  141.6457  169.0446 C.ar    1  UNL1        0.1509
     19 C         140.1517  141.4030  170.0162 C.ar    1  UNL1        0.0743
     20 O         137.9250  140.2155  170.6341 O.3     1  UNL1       -0.4726
     21 C         137.0789  138.9829  170.5117 C.3     1  UNL1        0.2373
     22 C         136.0608  138.6643  171.5663 C.3     1  UNL1        0.1894
     23 C         135.7444  136.8105  173.3588 C.3     1  UNL1        0.1743
     24 O         135.7699  137.2361  171.9207 O.3     1  UNL1       -0.3471
     25 O         141.9370  143.4589  162.0096 O.3     1  UNL1       -0.4747
     26 C         140.4389  143.4785  162.0820 C.3     1  UNL1        0.2010
     27 C         139.6321  142.6129  161.1602 C.3     1  UNL1        0.0635
     28 C         138.1340  142.6325  161.2326 C.3     1  UNL1        0.0725
     29 N         137.4426  143.5175  162.2269 N.3     1  UNL1       -0.2950
     30 C         138.2494  144.3832  163.1488 C.3     1  UNL1        0.1081
     31 C         139.7475  144.3636  163.0764 C.3     1  UNL1        0.2161
     32 F         140.5543  145.2292  163.9983 F       1  UNL1       -0.2319
     33 H         136.8735  142.9099  162.8163 H       1  UNL1        0.1233
@<TRIPOS>BOND
     1    23    24    1
     2    24    22    1
     3    22    21    1
     4    21    20    1
     5    20    11    1
     6    11    12   ar
     7    12    13   ar
     8    13    14   ar
     9    14    15   ar
    10    15     1    1
    11     1     2   ar
    12     2     3   ar
    13     3     4   ar
    14     4     5   ar
    15     5     6   ar
    16     6     7   ar
    17     7     8   ar
    18     8    25    1
    19    26    25    1
    20    26    27    1
    21    27    28    1
    22    28    29    1
    23    29    30    1
    24    30    31    1
    25    31    32    1
    26     8     9   ar
    27     9    10   ar
    28    15    16   ar
    29    16    17   ar
    30    17    18   ar
    31    18    19   ar
    32    19    11   ar
    33    18    14   ar
    34    10     1   ar
    35     9     4   ar
    36    31    26    1
    37    29    33    1
@<TRIPOS>MOLECULE
*****
 33 37 0 0 0
SMALL
GASTEIGER

@<TRIPOS>ATOM
      1 C         141.8948  139.5156  163.6347 C.ar    1  UNL1        0.0990
      2 C         141.4243  138.2165  163.0508 C.ar    1  UNL1        0.0207
      3 C         140.2828  137.4788  163.6854 C.ar    1  UNL1        0.0032
      4 C         139.6119  138.0401  164.9039 C.ar    1  UNL1        0.0207
      5 C         138.4704  137.3023  165.5385 C.ar    1  UNL1        0.0017
      6 C         137.7994  137.8636  166.7570 C.ar    1  UNL1        0.0032
      7 C         138.2700  139.1628  167.3409 C.ar    1  UNL1        0.0385
      8 C         139.4114  139.9005  166.7063 C.ar    1  UNL1        0.1559
      9 C         140.0824  139.3392  165.4878 C.ar    1  UNL1        0.1151
     10 N         141.2238  140.0769  164.8532 N.ar    1  UNL1       -0.2408
     11 C         143.4953  142.6251  159.2295 C.ar    1  UNL1        0.1432
     12 C         142.1351  142.0445  159.4798 C.ar    1  UNL1        0.0560
     13 C         141.8815  141.2340  160.7163 C.ar    1  UNL1        0.0846
     14 N         142.9882  141.0041  161.7024 N.ar    1  UNL1       -0.2872
     15 C         143.0363  140.2534  163.0001 C.ar    1  UNL1        0.1021
     16 C         144.4263  140.3700  163.5518 C.ar    1  UNL1        0.1195
     17 N         145.2372  141.1928  162.5951 N.ar    1  UNL1       -0.2247
     18 C         144.3484  141.5847  161.4520 C.ar    1  UNL1        0.1509
     19 C         144.6020  142.3952  160.2157 C.ar    1  UNL1        0.0743
     20 O         143.7488  143.4356  157.9931 O.3     1  UNL1       -0.4726
     21 C         142.6014  144.0673  157.2619 C.3     1  UNL1        0.2373
     22 C         142.1529  145.4522  157.6236 C.3     1  UNL1        0.1894
     23 C         140.4666  145.2736  159.5919 C.3     1  UNL1        0.1743
     24 O         141.7689  145.7707  159.0382 O.3     1  UNL1       -0.3471
     25 O         139.8819  141.1996  167.2902 O.3     1  UNL1       -0.4747
     26 C         140.7520  141.2013  168.5121 C.3     1  UNL1        0.2010
     27 C         142.2435  141.2759  168.3707 C.3     1  UNL1        0.0635
     28 C         143.1135  141.2776  169.5925 C.3     1  UNL1        0.0725
     29 N         142.4922  141.2046  170.9558 N.3     1  UNL1       -0.2950
     30 C         141.0007  141.1299  171.0973 C.3     1  UNL1        0.1081
     31 C         140.1306  141.1282  169.8754 C.3     1  UNL1        0.2161
     32 F         138.6392  141.0536  170.0168 F       1  UNL1       -0.2319
     33 H         142.7947  142.0367  171.4622 H       1  UNL1        0.1233
@<TRIPOS>BOND
     1    23    24    1
     2    24    22    1
     3    22    21    1
     4    21    20    1
     5    20    11    1
     6    11    12   ar
     7    12    13   ar
     8    13    14   ar
     9    14    15   ar
    10    15     1    1
    11     1     2   ar
    12     2     3   ar
    13     3     4   ar
    14     4     5   ar
    15     5     6   ar
    16     6     7   ar
    17     7     8   ar
    18     8    25    1
    19    26    25    1
    20    26    27    1
    21    27    28    1
    22    28    29    1
    23    29    30    1
    24    30    31    1
    25    31    32    1
    26     8     9   ar
    27     9    10   ar
    28    15    16   ar
    29    16    17   ar
    30    17    18   ar
    31    18    19   ar
    32    19    11   ar
    33    18    14   ar
    34    10     1   ar
    35     9     4   ar
    36    31    26    1
    37    29    33    1
@<TRIPOS>MOLECULE
*****
 33 37 0 0 0
SMALL
GASTEIGER

@<TRIPOS>ATOM
      1 C         139.4237  139.1140  164.4314 C.ar    1  UNL1        0.0990
      2 C         138.5741  138.2951  165.3573 C.ar    1  UNL1        0.0207
      3 C         138.5085  138.6387  166.8160 C.ar    1  UNL1        0.0032
      4 C         139.2925  139.8012  167.3486 C.ar    1  UNL1        0.0207
      5 C         139.2269  140.1448  168.8073 C.ar    1  UNL1        0.0017
      6 C         140.0109  141.3074  169.3400 C.ar    1  UNL1        0.0032
      7 C         140.8605  142.1264  168.4139 C.ar    1  UNL1        0.0385
      8 C         140.9261  141.7828  166.9553 C.ar    1  UNL1        0.1559
      9 C         140.1421  140.6202  166.4227 C.ar    1  UNL1        0.1151
     10 N         140.2077  140.2766  164.9641 N.ar    1  UNL1       -0.2408
     11 C         142.7005  139.0126  159.8609 C.ar    1  UNL1        0.1432
     12 C         143.0805  139.4767  161.2357 C.ar    1  UNL1        0.0560
     13 C         142.0735  139.4345  162.3466 C.ar    1  UNL1        0.0846
     14 N         140.6864  138.9282  162.0827 N.ar    1  UNL1       -0.2872
     15 C         139.4893  138.7704  162.9727 C.ar    1  UNL1        0.1021
     16 C         138.3694  138.2088  162.1479 C.ar    1  UNL1        0.1195
     17 N         138.8743  138.0194  160.7482 N.ar    1  UNL1       -0.2247
     18 C         140.3064  138.4641  160.7079 C.ar    1  UNL1        0.1509
     19 C         141.3133  138.5062  159.5971 C.ar    1  UNL1        0.0743
     20 O         143.7074  139.0548  158.7500 O.3     1  UNL1       -0.4726
     21 C         143.3254  139.6160  157.4123 C.3     1  UNL1        0.2373
     22 C         143.3427  138.7365  156.1973 C.3     1  UNL1        0.1894
     23 C         144.1183  136.3363  155.5753 C.3     1  UNL1        0.1743
     24 O         144.4429  137.7337  156.0130 O.3     1  UNL1       -0.3471
     25 O         141.7757  142.6018  166.0294 O.3     1  UNL1       -0.4747
     26 C         141.1352  143.5918  165.1024 C.3     1  UNL1        0.2010
     27 C         139.6653  143.8730  165.2047 C.3     1  UNL1        0.0635
     28 C         139.0248  144.8631  164.2777 C.3     1  UNL1        0.0725
     29 N         139.8540  145.5720  163.2483 N.3     1  UNL1       -0.2950
     30 C         141.3239  145.2908  163.1458 C.3     1  UNL1        0.1081
     31 C         141.9645  144.3007  164.0729 C.3     1  UNL1        0.2161
     32 F         143.4343  144.0195  163.9705 F       1  UNL1       -0.2319
     33 H         139.7573  146.5711  163.4293 H       1  UNL1        0.1233
@<TRIPOS>BOND
     1    23    24    1
     2    24    22    1
     3    22    21    1
     4    21    20    1
     5    20    11    1
     6    11    12   ar
     7    12    13   ar
     8    13    14   ar
     9    14    15   ar
    10    15     1    1
    11     1     2   ar
    12     2     3   ar
    13     3     4   ar
    14     4     5   ar
    15     5     6   ar
    16     6     7   ar
    17     7     8   ar
    18     8    25    1
    19    26    25    1
    20    26    27    1
    21    27    28    1
    22    28    29    1
    23    29    30    1
    24    30    31    1
    25    31    32    1
    26     8     9   ar
    27     9    10   ar
    28    15    16   ar
    29    16    17   ar
    30    17    18   ar
    31    18    19   ar
    32    19    11   ar
    33    18    14   ar
    34    10     1   ar
    35     9     4   ar
    36    31    26    1
    37    29    33    1
@<TRIPOS>MOLECULE
*****
 33 37 0 0 0
SMALL
GASTEIGER

@<TRIPOS>ATOM
      1 C         139.1354  139.4077  164.5756 C.ar    1  UNL1        0.0990
      2 C         138.3108  138.5965  165.5305 C.ar    1  UNL1        0.0207
      3 C         138.3588  138.8915  167.0005 C.ar    1  UNL1        0.0032
      4 C         139.2314  139.9976  167.5154 C.ar    1  UNL1        0.0207
      5 C         139.2794  140.2925  168.9854 C.ar    1  UNL1        0.0017
      6 C         140.1519  141.3986  169.5003 C.ar    1  UNL1        0.0032
      7 C         140.9765  142.2098  168.5452 C.ar    1  UNL1        0.0385
      8 C         140.9285  141.9149  167.0753 C.ar    1  UNL1        0.1559
      9 C         140.0559  140.8088  166.5604 C.ar    1  UNL1        0.1151
     10 N         140.0079  140.5139  165.0905 N.ar    1  UNL1       -0.2408
     11 C         138.3301  141.5969  159.4573 C.ar    1  UNL1        0.1432
     12 C         138.2811  142.3227  160.7691 C.ar    1  UNL1        0.0560
     13 C         138.5217  141.5772  162.0482 C.ar    1  UNL1        0.0846
     14 N         138.8114  140.1058  162.0157 N.ar    1  UNL1       -0.2872
     15 C         139.0874  139.1128  163.1056 C.ar    1  UNL1        0.1021
     16 C         139.3070  137.7733  162.4674 C.ar    1  UNL1        0.1195
     17 N         139.1668  137.9383  160.9832 N.ar    1  UNL1       -0.2247
     18 C         138.8604  139.3799  160.7039 C.ar    1  UNL1        0.1509
     19 C         138.6198  140.1254  159.4248 C.ar    1  UNL1        0.0743
     20 O         138.0895  142.3423  158.1782 O.3     1  UNL1       -0.4726
     21 C         137.7864  141.5892  156.9168 C.3     1  UNL1        0.2373
     22 C         136.3989  141.0789  156.6630 C.3     1  UNL1        0.1894
     23 C         135.1394  139.8915  154.7256 C.3     1  UNL1        0.1743
     24 O         136.1902  139.8730  155.7957 O.3     1  UNL1       -0.3471
     25 O         141.7530  142.7261  166.1204 O.3     1  UNL1       -0.4747
     26 C         141.0820  143.6503  165.1480 C.3     1  UNL1        0.2010
     27 C         139.6146  143.9348  165.2740 C.3     1  UNL1        0.0635
     28 C         138.9436  144.8590  164.3017 C.3     1  UNL1        0.0725
     29 N         139.7399  145.4987  163.2032 N.3     1  UNL1       -0.2950
     30 C         141.2073  145.2143  163.0771 C.3     1  UNL1        0.1081
     31 C         141.8784  144.2901  164.0495 C.3     1  UNL1        0.2161
     32 F         143.3457  144.0056  163.9234 F       1  UNL1       -0.2319
     33 H         139.6444  146.5076  163.3195 H       1  UNL1        0.1233
@<TRIPOS>BOND
     1    23    24    1
     2    24    22    1
     3    22    21    1
     4    21    20    1
     5    20    11    1
     6    11    12   ar
     7    12    13   ar
     8    13    14   ar
     9    14    15   ar
    10    15     1    1
    11     1     2   ar
    12     2     3   ar
    13     3     4   ar
    14     4     5   ar
    15     5     6   ar
    16     6     7   ar
    17     7     8   ar
    18     8    25    1
    19    26    25    1
    20    26    27    1
    21    27    28    1
    22    28    29    1
    23    29    30    1
    24    30    31    1
    25    31    32    1
    26     8     9   ar
    27     9    10   ar
    28    15    16   ar
    29    16    17   ar
    30    17    18   ar
    31    18    19   ar
    32    19    11   ar
    33    18    14   ar
    34    10     1   ar
    35     9     4   ar
    36    31    26    1
    37    29    33    1
@<TRIPOS>MOLECULE
*****
 33 37 0 0 0
SMALL
GASTEIGER

@<TRIPOS>ATOM
      1 C         142.0461  139.5605  163.9036 C.ar    1  UNL1        0.0990
      2 C         141.5708  138.3149  163.2163 C.ar    1  UNL1        0.0207
      3 C         140.3808  137.5725  163.7480 C.ar    1  UNL1        0.0032
      4 C         139.6661  138.0758  164.9670 C.ar    1  UNL1        0.0207
      5 C         138.4761  137.3334  165.4986 C.ar    1  UNL1        0.0017
      6 C         137.7614  137.8366  166.7176 C.ar    1  UNL1        0.0032
      7 C         138.2367  139.0824  167.4049 C.ar    1  UNL1        0.0385
      8 C         139.4267  139.8247  166.8732 C.ar    1  UNL1        0.1559
      9 C         140.1414  139.3215  165.6542 C.ar    1  UNL1        0.1151
     10 N         141.3314  140.0638  165.1226 N.ar    1  UNL1       -0.2408
     11 C         144.1852  142.2665  159.4607 C.ar    1  UNL1        0.1432
     12 C         142.8348  141.6214  159.5622 C.ar    1  UNL1        0.0560
     13 C         142.4239  140.9376  160.8325 C.ar    1  UNL1        0.0846
     14 N         143.3633  140.8990  162.0013 N.ar    1  UNL1       -0.2872
     15 C         143.2362  140.3030  163.3719 C.ar    1  UNL1        0.1021
     16 C         144.5080  140.5797  164.1175 C.ar    1  UNL1        0.1195
     17 N         145.4211  141.3468  163.2077 N.ar    1  UNL1       -0.2247
     18 C         144.7137  141.5441  161.8997 C.ar    1  UNL1        0.1509
     19 C         145.1246  142.2278  160.6295 C.ar    1  UNL1        0.0743
     20 O         144.5961  142.9502  158.1905 O.3     1  UNL1       -0.4726
     21 C         145.6464  142.3352  157.3136 C.3     1  UNL1        0.2373
     22 C         147.0412  142.8872  157.3140 C.3     1  UNL1        0.1894
     23 C         147.7584  141.7693  155.0812 C.3     1  UNL1        0.1743
     24 O         148.0987  142.2539  156.4592 O.3     1  UNL1       -0.3471
     25 O         139.9020  141.0704  167.5605 O.3     1  UNL1       -0.4747
     26 C         140.6642  140.9720  168.8487 C.3     1  UNL1        0.2010
     27 C         142.1636  140.9343  168.8319 C.3     1  UNL1        0.0635
     28 C         142.9258  140.8359  170.1201 C.3     1  UNL1        0.0725
     29 N         142.1886  140.7751  171.4250 N.3     1  UNL1       -0.2950
     30 C         140.6891  140.8128  171.4418 C.3     1  UNL1        0.1081
     31 C         139.9269  140.9112  170.1536 C.3     1  UNL1        0.2161
     32 F         138.4275  140.9488  170.1703 F       1  UNL1       -0.2319
     33 H         142.5093  141.5675  171.9815 H       1  UNL1        0.1233
@<TRIPOS>BOND
     1    23    24    1
     2    24    22    1
     3    22    21    1
     4    21    20    1
     5    20    11    1
     6    11    12   ar
     7    12    13   ar
     8    13    14   ar
     9    14    15   ar
    10    15     1    1
    11     1     2   ar
    12     2     3   ar
    13     3     4   ar
    14     4     5   ar
    15     5     6   ar
    16     6     7   ar
    17     7     8   ar
    18     8    25    1
    19    26    25    1
    20    26    27    1
    21    27    28    1
    22    28    29    1
    23    29    30    1
    24    30    31    1
    25    31    32    1
    26     8     9   ar
    27     9    10   ar
    28    15    16   ar
    29    16    17   ar
    30    17    18   ar
    31    18    19   ar
    32    19    11   ar
    33    18    14   ar
    34    10     1   ar
    35     9     4   ar
    36    31    26    1
    37    29    33    1
