@<TRIPOS>MOLECULE
*****
 32 35 0 0 0
SMALL
GASTEIGER

@<TRIPOS>ATOM
      1 O         142.0532  142.5637  164.6807 O.2     1  UNL1       -0.2729
      2 C         142.2406  141.3347  165.5197 C.2     1  UNL1        0.2451
      3 N         143.4654  140.4865  165.3444 N.am    1  UNL1       -0.2988
      4 H         143.5884  139.6798  165.8951 H       1  UNL1        0.1498
      5 C         141.2033  140.9536  166.5341 C.3     1  UNL1        0.1751
      6 C         141.0121  141.5870  167.8802 C.ar    1  UNL1        0.0089
      7 C         141.7337  142.7029  168.5761 C.ar    1  UNL1       -0.0021
      8 C         141.3089  143.1288  169.9501 C.ar    1  UNL1       -0.0003
      9 C         140.1626  142.4389  170.6284 C.ar    1  UNL1        0.0001
     10 C         139.4410  141.3231  169.9326 C.ar    1  UNL1        0.0043
     11 C         139.8658  140.8972  168.5585 C.ar    1  UNL1        0.0516
     12 C         139.3486  139.8374  167.6315 C.2     1  UNL1        0.2493
     13 O         138.2054  138.9062  167.9073 O.2     1  UNL1       -0.2699
     14 N         140.1752  139.8722  166.3803 N.am    1  UNL1       -0.2676
     15 C         140.0039  138.9821  165.1852 C.3     1  UNL1        0.0813
     16 C         138.7891  139.1190  164.3161 C.3     1  UNL1        0.0520
     17 C         138.6177  138.2288  163.1210 C.3     1  UNL1        0.1439
     18 O         139.6611  137.2017  162.7951 O.3     1  UNL1       -0.3537
     19 C         140.8759  137.0648  163.6642 C.3     1  UNL1        0.1439
     20 C         141.0473  137.9549  164.8593 C.3     1  UNL1        0.0520
     21 C         144.5027  140.8676  164.3301 C.3     1  UNL1        0.1164
     22 C         144.3217  140.4829  162.8916 C.ar    1  UNL1       -0.0024
     23 C         144.3362  141.5380  161.8255 C.ar    1  UNL1        0.0005
     24 C         144.1553  141.1533  160.3871 C.ar    1  UNL1        0.0369
     25 C         143.9598  139.7135  160.0146 C.ar    1  UNL1        0.1468
     26 C         143.9454  138.6583  161.0806 C.ar    1  UNL1        0.0369
     27 C         144.1263  139.0431  162.5192 C.ar    1  UNL1        0.0005
     28 O         143.7789  139.3288  158.5761 O.3     1  UNL1       -0.4045
     29 C         142.4707  138.7619  158.1101 C.3     1  UNL1        0.5753
     30 F         141.1625  138.1949  157.6441 F       1  UNL1       -0.1328
     31 F         141.8672  140.1349  158.1339 F       1  UNL1       -0.1328
     32 F         143.0742  137.3888  158.0863 F       1  UNL1       -0.1328
@<TRIPOS>BOND
     1     1     2    2
     2     2     3   am
     3     3    21    1
     4    21    22    1
     5    22    23   ar
     6    23    24   ar
     7    24    25   ar
     8    25    28    1
     9    28    29    1
    10    29    30    1
    11    29    31    1
    12    29    32    1
    13    25    26   ar
    14    26    27   ar
    15     2     5    1
    16     5     6    1
    17     6     7   ar
    18     7     8   ar
    19     8     9   ar
    20     9    10   ar
    21    10    11   ar
    22    11    12    1
    23    12    13    2
    24    12    14   am
    25    14    15    1
    26    15    16    1
    27    16    17    1
    28    17    18    1
    29    18    19    1
    30    19    20    1
    31    27    22   ar
    32    14     5    1
    33    20    15    1
    34    11     6   ar
    35     3     4    1
@<TRIPOS>MOLECULE
*****
 32 35 0 0 0
SMALL
GASTEIGER

@<TRIPOS>ATOM
      1 O         141.9846  140.8836  164.1903 O.2     1  UNL1       -0.2729
      2 C         141.3915  141.6902  165.3073 C.2     1  UNL1        0.2451
      3 N         141.6287  143.1700  165.3718 N.am    1  UNL1       -0.2988
      4 H         141.2395  143.6994  166.1049 H       1  UNL1        0.1498
      5 C         140.5613  141.0171  166.3598 C.3     1  UNL1        0.1751
      6 C         140.6934  141.2068  167.8418 C.ar    1  UNL1        0.0089
      7 C         141.6157  142.0545  168.6669 C.ar    1  UNL1       -0.0021
      8 C         141.5116  142.0385  170.1632 C.ar    1  UNL1       -0.0003
      9 C         140.4852  141.1748  170.8344 C.ar    1  UNL1        0.0001
     10 C         139.5629  140.3271  170.0093 C.ar    1  UNL1        0.0043
     11 C         139.6670  140.3431  168.5130 C.ar    1  UNL1        0.0516
     12 C         138.9006  139.6196  167.4457 C.2     1  UNL1        0.2493
     13 O         137.7785  138.6498  167.6699 O.2     1  UNL1       -0.2699
     14 N         139.4533  140.0361  166.1149 N.am    1  UNL1       -0.2676
     15 C         138.9809  139.5559  164.7747 C.3     1  UNL1        0.0813
     16 C         139.2294  138.1372  164.3560 C.3     1  UNL1        0.0520
     17 C         138.7570  137.6570  163.0157 C.3     1  UNL1        0.1439
     18 O         138.0362  138.5956  162.0941 O.3     1  UNL1       -0.3537
     19 C         137.7877  140.0144  162.5128 C.3     1  UNL1        0.1439
     20 C         138.2601  140.4946  163.8531 C.3     1  UNL1        0.0520
     21 C         142.4589  143.8431  164.3193 C.3     1  UNL1        0.1164
     22 C         141.8157  144.3311  163.0552 C.ar    1  UNL1       -0.0024
     23 C         142.3569  143.9015  161.7239 C.ar    1  UNL1        0.0005
     24 C         141.7135  144.3896  160.4599 C.ar    1  UNL1        0.0369
     25 C         140.5289  145.3073  160.5270 C.ar    1  UNL1        0.1468
     26 C         139.9877  145.7369  161.8584 C.ar    1  UNL1        0.0369
     27 C         140.6311  145.2488  163.1225 C.ar    1  UNL1        0.0005
     28 O         139.8856  145.7953  159.2630 O.3     1  UNL1       -0.4045
     29 C         140.2290  145.1547  157.9508 C.3     1  UNL1        0.5753
     30 F         140.5724  144.5140  156.6387 F       1  UNL1       -0.1328
     31 F         139.3235  144.0039  158.2758 F       1  UNL1       -0.1328
     32 F         141.1346  146.3055  157.6259 F       1  UNL1       -0.1328
@<TRIPOS>BOND
     1     1     2    2
     2     2     3   am
     3     3    21    1
     4    21    22    1
     5    22    23   ar
     6    23    24   ar
     7    24    25   ar
     8    25    28    1
     9    28    29    1
    10    29    30    1
    11    29    31    1
    12    29    32    1
    13    25    26   ar
    14    26    27   ar
    15     2     5    1
    16     5     6    1
    17     6     7   ar
    18     7     8   ar
    19     8     9   ar
    20     9    10   ar
    21    10    11   ar
    22    11    12    1
    23    12    13    2
    24    12    14   am
    25    14    15    1
    26    15    16    1
    27    16    17    1
    28    17    18    1
    29    18    19    1
    30    19    20    1
    31    27    22   ar
    32    14     5    1
    33    20    15    1
    34    11     6   ar
    35     3     4    1
@<TRIPOS>MOLECULE
*****
 32 35 0 0 0
SMALL
GASTEIGER

@<TRIPOS>ATOM
      1 O         138.4929  141.0050  165.2216 O.2     1  UNL1       -0.2729
      2 C         139.7410  141.7659  165.5579 C.2     1  UNL1        0.2451
      3 N         139.9835  143.1155  164.9497 N.am    1  UNL1       -0.2988
      4 H         140.8026  143.6150  165.1704 H       1  UNL1        0.1498
      5 C         140.7467  141.1773  166.5025 C.3     1  UNL1        0.1751
      6 C         141.1512  141.7499  167.8286 C.ar    1  UNL1        0.0089
      7 C         140.7165  142.9827  168.5643 C.ar    1  UNL1       -0.0021
      8 C         141.3096  143.3049  169.9038 C.ar    1  UNL1       -0.0003
      9 C         142.3373  142.3944  170.5077 C.ar    1  UNL1        0.0001
     10 C         142.7720  141.1616  169.7721 C.ar    1  UNL1        0.0043
     11 C         142.1789  140.8393  168.4325 C.ar    1  UNL1        0.0516
     12 C         142.4095  139.7041  167.4796 C.2     1  UNL1        0.2493
     13 O         143.3587  138.5607  167.6837 O.2     1  UNL1       -0.2699
     14 N         141.5244  139.9130  166.2868 N.am    1  UNL1       -0.2676
     15 C         141.4329  139.0151  165.0887 C.3     1  UNL1        0.0813
     16 C         140.2414  138.1216  164.9102 C.3     1  UNL1        0.0520
     17 C         140.1500  137.2238  163.7120 C.3     1  UNL1        0.1439
     18 O         141.2501  137.2195  162.6924 O.3     1  UNL1       -0.3537
     19 C         142.4416  138.1130  162.8709 C.3     1  UNL1        0.1439
     20 C         142.5330  139.0108  164.0690 C.3     1  UNL1        0.0520
     21 C         138.9778  143.7041  164.0051 C.3     1  UNL1        0.1164
     22 C         139.3373  143.9178  162.5646 C.ar    1  UNL1       -0.0024
     23 C         138.9491  142.8981  161.5354 C.ar    1  UNL1        0.0005
     24 C         139.3087  143.1119  160.0949 C.ar    1  UNL1        0.0369
     25 C         140.0565  144.3455  159.6836 C.ar    1  UNL1        0.1468
     26 C         140.4447  145.3652  160.7128 C.ar    1  UNL1        0.0369
     27 C         140.0851  145.1514  162.1534 C.ar    1  UNL1        0.0005
     28 O         140.4160  144.5592  158.2431 O.3     1  UNL1       -0.4045
     29 C         141.4971  145.5322  157.8763 C.3     1  UNL1        0.5753
     30 F         142.5781  146.5052  157.5094 F       1  UNL1       -0.1328
     31 F         140.4572  146.5401  157.4854 F       1  UNL1       -0.1328
     32 F         142.5369  144.5243  158.2672 F       1  UNL1       -0.1328
@<TRIPOS>BOND
     1     1     2    2
     2     2     3   am
     3     3    21    1
     4    21    22    1
     5    22    23   ar
     6    23    24   ar
     7    24    25   ar
     8    25    28    1
     9    28    29    1
    10    29    30    1
    11    29    31    1
    12    29    32    1
    13    25    26   ar
    14    26    27   ar
    15     2     5    1
    16     5     6    1
    17     6     7   ar
    18     7     8   ar
    19     8     9   ar
    20     9    10   ar
    21    10    11   ar
    22    11    12    1
    23    12    13    2
    24    12    14   am
    25    14    15    1
    26    15    16    1
    27    16    17    1
    28    17    18    1
    29    18    19    1
    30    19    20    1
    31    27    22   ar
    32    14     5    1
    33    20    15    1
    34    11     6   ar
    35     3     4    1
@<TRIPOS>MOLECULE
*****
 32 35 0 0 0
SMALL
GASTEIGER

@<TRIPOS>ATOM
      1 O         142.2403  144.5810  163.6697 O.2     1  UNL1       -0.2729
      2 C         141.4579  143.8947  162.5895 C.2     1  UNL1        0.2451
      3 N         140.0465  143.4575  162.8482 N.am    1  UNL1       -0.2988
      4 H         139.5330  143.0070  162.1393 H       1  UNL1        0.1498
      5 C         142.0868  143.6456  161.2507 C.3     1  UNL1        0.1751
      6 C         141.6887  144.2900  159.9560 C.ar    1  UNL1        0.0089
      7 C         140.6297  145.2979  159.6205 C.ar    1  UNL1       -0.0021
      8 C         140.4620  145.7668  158.2056 C.ar    1  UNL1       -0.0003
      9 C         141.3534  145.2279  157.1262 C.ar    1  UNL1        0.0001
     10 C         142.4124  144.2200  157.4618 C.ar    1  UNL1        0.0043
     11 C         142.5801  143.7511  158.8767 C.ar    1  UNL1        0.0516
     12 C         143.5291  142.7736  159.5043 C.2     1  UNL1        0.2493
     13 O         144.5957  141.9976  158.7901 O.2     1  UNL1       -0.2699
     14 N         143.2243  142.7084  160.9716 N.am    1  UNL1       -0.2676
     15 C         143.9325  141.8558  161.9822 C.3     1  UNL1        0.0813
     16 C         143.5519  140.4142  162.1458 C.3     1  UNL1        0.0520
     17 C         144.2602  139.5615  163.1565 C.3     1  UNL1        0.1439
     18 O         145.3490  140.1505  164.0035 O.3     1  UNL1       -0.3537
     19 C         145.7296  141.5922  163.8399 C.3     1  UNL1        0.1439
     20 C         145.0213  142.4448  162.8293 C.3     1  UNL1        0.0520
     21 C         139.4176  143.7066  164.1870 C.3     1  UNL1        0.1164
     22 C         139.5442  142.6839  165.2769 C.ar    1  UNL1       -0.0024
     23 C         140.3567  142.9884  166.5005 C.ar    1  UNL1        0.0005
     24 C         140.4833  141.9656  167.5904 C.ar    1  UNL1        0.0369
     25 C         139.7973  140.6383  167.4568 C.ar    1  UNL1        0.1468
     26 C         138.9847  140.3338  166.2333 C.ar    1  UNL1        0.0369
     27 C         138.8582  141.3566  165.1433 C.ar    1  UNL1        0.0005
     28 O         139.9239  139.6156  168.5468 O.3     1  UNL1       -0.4045
     29 C         140.1532  140.0533  169.9631 C.3     1  UNL1        0.5753
     30 F         140.3826  140.4910  171.3793 F       1  UNL1       -0.1328
     31 F         138.7979  140.6956  169.9841 F       1  UNL1       -0.1328
     32 F         141.5086  139.4110  169.9420 F       1  UNL1       -0.1328
@<TRIPOS>BOND
     1     1     2    2
     2     2     3   am
     3     3    21    1
     4    21    22    1
     5    22    23   ar
     6    23    24   ar
     7    24    25   ar
     8    25    28    1
     9    28    29    1
    10    29    30    1
    11    29    31    1
    12    29    32    1
    13    25    26   ar
    14    26    27   ar
    15     2     5    1
    16     5     6    1
    17     6     7   ar
    18     7     8   ar
    19     8     9   ar
    20     9    10   ar
    21    10    11   ar
    22    11    12    1
    23    12    13    2
    24    12    14   am
    25    14    15    1
    26    15    16    1
    27    16    17    1
    28    17    18    1
    29    18    19    1
    30    19    20    1
    31    27    22   ar
    32    14     5    1
    33    20    15    1
    34    11     6   ar
    35     3     4    1
@<TRIPOS>MOLECULE
*****
 32 35 0 0 0
SMALL
GASTEIGER

@<TRIPOS>ATOM
      1 O         142.2047  143.7651  164.9636 O.2     1  UNL1       -0.2729
      2 C         141.1774  142.8892  165.6172 C.2     1  UNL1        0.2451
      3 N         139.7178  143.1911  165.4487 N.am    1  UNL1       -0.2988
      4 H         139.0434  142.6162  165.8777 H       1  UNL1        0.1498
      5 C         141.6097  141.7113  166.4393 C.3     1  UNL1        0.1751
      6 C         141.1555  141.3950  167.8335 C.ar    1  UNL1        0.0089
      7 C         140.2095  142.0944  168.7639 C.ar    1  UNL1       -0.0021
      8 C         139.9450  141.5301  170.1283 C.ar    1  UNL1       -0.0003
      9 C         140.6265  140.2663  170.5622 C.ar    1  UNL1        0.0001
     10 C         141.5725  139.5668  169.6318 C.ar    1  UNL1        0.0043
     11 C         141.8371  140.1312  168.2674 C.ar    1  UNL1        0.0516
     12 C         142.7124  139.6665  167.1414 C.2     1  UNL1        0.2493
     13 O         143.5765  138.4404  167.1447 O.2     1  UNL1       -0.2699
     14 N         142.5718  140.6430  166.0116 N.am    1  UNL1       -0.2676
     15 C         143.2708  140.5650  164.6867 C.3     1  UNL1        0.0813
     16 C         144.5826  141.2647  164.4884 C.3     1  UNL1        0.0520
     17 C         145.2816  141.1867  163.1635 C.3     1  UNL1        0.1439
     18 O         144.6686  140.4090  162.0368 O.3     1  UNL1       -0.3537
     19 C         143.3568  139.7093  162.2351 C.3     1  UNL1        0.1439
     20 C         142.6578  139.7873  163.5600 C.3     1  UNL1        0.0520
     21 C         139.2855  144.3690  164.6266 C.3     1  UNL1        0.1164
     22 C         139.5579  144.3945  163.1518 C.ar    1  UNL1       -0.0024
     23 C         139.2638  143.1858  162.3137 C.ar    1  UNL1        0.0005
     24 C         139.5362  143.2114  160.8389 C.ar    1  UNL1        0.0369
     25 C         140.1026  144.4458  160.2021 C.ar    1  UNL1        0.1468
     26 C         140.3967  145.6546  161.0402 C.ar    1  UNL1        0.0369
     27 C         140.1243  145.6289  162.5151 C.ar    1  UNL1        0.0005
     28 O         140.3750  144.4714  158.7273 O.3     1  UNL1       -0.4045
     29 C         141.4132  145.4009  158.1722 C.3     1  UNL1        0.5753
     30 F         142.4514  146.3304  157.6172 F       1  UNL1       -0.1328
     31 F         142.4924  144.4517  158.6014 F       1  UNL1       -0.1328
     32 F         140.3339  146.3501  157.7430 F       1  UNL1       -0.1328
@<TRIPOS>BOND
     1     1     2    2
     2     2     3   am
     3     3    21    1
     4    21    22    1
     5    22    23   ar
     6    23    24   ar
     7    24    25   ar
     8    25    28    1
     9    28    29    1
    10    29    30    1
    11    29    31    1
    12    29    32    1
    13    25    26   ar
    14    26    27   ar
    15     2     5    1
    16     5     6    1
    17     6     7   ar
    18     7     8   ar
    19     8     9   ar
    20     9    10   ar
    21    10    11   ar
    22    11    12    1
    23    12    13    2
    24    12    14   am
    25    14    15    1
    26    15    16    1
    27    16    17    1
    28    17    18    1
    29    18    19    1
    30    19    20    1
    31    27    22   ar
    32    14     5    1
    33    20    15    1
    34    11     6   ar
    35     3     4    1
@<TRIPOS>MOLECULE
*****
 32 35 0 0 0
SMALL
GASTEIGER

@<TRIPOS>ATOM
      1 O         139.6260  140.7090  164.3715 O.2     1  UNL1       -0.2729
      2 C         140.6654  140.0114  165.1979 C.2     1  UNL1        0.2451
      3 N         141.1261  138.6353  164.8182 N.am    1  UNL1       -0.2988
      4 H         141.8083  138.1774  165.3606 H       1  UNL1        0.1498
      5 C         141.2442  140.6899  166.4041 C.3     1  UNL1        0.1751
      6 C         140.6391  140.7155  167.7764 C.ar    1  UNL1        0.0089
      7 C         139.3761  140.1234  168.3277 C.ar    1  UNL1       -0.0021
      8 C         139.0244  140.3189  169.7727 C.ar    1  UNL1       -0.0003
      9 C         139.9359  141.1067  170.6664 C.ar    1  UNL1        0.0001
     10 C         141.1989  141.6988  170.1151 C.ar    1  UNL1        0.0043
     11 C         141.5506  141.5032  168.6701 C.ar    1  UNL1        0.0516
     12 C         142.7189  141.9644  167.8501 C.2     1  UNL1        0.2493
     13 O         143.8738  142.7843  168.3440 O.2     1  UNL1       -0.2699
     14 N         142.5295  141.4617  166.4496 N.am    1  UNL1       -0.2676
     15 C         143.4618  141.6907  165.2970 C.3     1  UNL1        0.0813
     16 C         143.5982  143.0615  164.7036 C.3     1  UNL1        0.0520
     17 C         144.5305  143.2905  163.5510 C.3     1  UNL1        0.1439
     18 O         145.3264  142.1486  162.9919 O.3     1  UNL1       -0.3537
     19 C         145.1900  140.7778  163.5853 C.3     1  UNL1        0.1439
     20 C         144.2577  140.5488  164.7379 C.3     1  UNL1        0.0520
     21 C         140.5473  137.9568  163.6120 C.3     1  UNL1        0.1164
     22 C         141.2360  138.0715  162.2845 C.ar    1  UNL1       -0.0024
     23 C         140.4366  138.3514  161.0465 C.ar    1  UNL1        0.0005
     24 C         141.1254  138.4661  159.7189 C.ar    1  UNL1        0.0369
     25 C         142.6136  138.3008  159.6293 C.ar    1  UNL1        0.1468
     26 C         143.4130  138.0208  160.8672 C.ar    1  UNL1        0.0369
     27 C         142.7242  137.9062  162.1949 C.ar    1  UNL1        0.0005
     28 O         143.3023  138.4155  158.3017 O.3     1  UNL1       -0.4045
     29 C         142.7237  137.7370  157.0955 C.3     1  UNL1        0.5753
     30 F         142.1451  137.0585  155.8893 F       1  UNL1       -0.1328
     31 F         142.5140  139.0723  156.4451 F       1  UNL1       -0.1328
     32 F         142.9335  136.4017  157.7459 F       1  UNL1       -0.1328
@<TRIPOS>BOND
     1     1     2    2
     2     2     3   am
     3     3    21    1
     4    21    22    1
     5    22    23   ar
     6    23    24   ar
     7    24    25   ar
     8    25    28    1
     9    28    29    1
    10    29    30    1
    11    29    31    1
    12    29    32    1
    13    25    26   ar
    14    26    27   ar
    15     2     5    1
    16     5     6    1
    17     6     7   ar
    18     7     8   ar
    19     8     9   ar
    20     9    10   ar
    21    10    11   ar
    22    11    12    1
    23    12    13    2
    24    12    14   am
    25    14    15    1
    26    15    16    1
    27    16    17    1
    28    17    18    1
    29    18    19    1
    30    19    20    1
    31    27    22   ar
    32    14     5    1
    33    20    15    1
    34    11     6   ar
    35     3     4    1
@<TRIPOS>MOLECULE
*****
 32 35 0 0 0
SMALL
GASTEIGER

@<TRIPOS>ATOM
      1 O         140.5647  143.0948  164.5382 O.2     1  UNL1       -0.2729
      2 C         140.0379  141.9479  165.3487 C.2     1  UNL1        0.2451
      3 N         138.6630  141.4103  165.0823 N.am    1  UNL1       -0.2988
      4 H         138.3172  140.6575  165.6143 H       1  UNL1        0.1498
      5 C         140.8858  141.3385  166.4256 C.3     1  UNL1        0.1751
      6 C         141.0807  141.8843  167.8091 C.ar    1  UNL1        0.0089
      7 C         140.5375  143.1040  168.4926 C.ar    1  UNL1       -0.0021
      8 C         140.9166  143.3988  169.9136 C.ar    1  UNL1       -0.0003
      9 C         141.8389  142.4740  170.6511 C.ar    1  UNL1        0.0001
     10 C         142.3821  141.2543  169.9677 C.ar    1  UNL1        0.0043
     11 C         142.0030  140.9594  168.5466 C.ar    1  UNL1        0.0516
     12 C         142.3781  139.8420  167.6189 C.2     1  UNL1        0.2493
     13 O         143.2846  138.6922  167.9449 O.2     1  UNL1       -0.2699
     14 N         141.6877  140.0762  166.3081 N.am    1  UNL1       -0.2676
     15 C         141.7824  139.2018  165.0930 C.3     1  UNL1        0.0813
     16 C         140.7130  138.1879  164.8134 C.3     1  UNL1        0.0520
     17 C         140.8077  137.3135  163.5983 C.3     1  UNL1        0.1439
     18 O         141.9719  137.4529  162.6629 O.3     1  UNL1       -0.3537
     19 C         143.0414  138.4668  162.9425 C.3     1  UNL1        0.1439
     20 C         142.9466  139.3413  164.1576 C.3     1  UNL1        0.0520
     21 C         137.8151  142.0197  164.0054 C.3     1  UNL1        0.1164
     22 C         137.9027  141.5035  162.5998 C.ar    1  UNL1       -0.0024
     23 C         138.1718  142.4507  161.4683 C.ar    1  UNL1        0.0005
     24 C         138.2593  141.9344  160.0627 C.ar    1  UNL1        0.0369
     25 C         138.0778  140.4708  159.7885 C.ar    1  UNL1        0.1468
     26 C         137.8087  139.5236  160.9200 C.ar    1  UNL1        0.0369
     27 C         137.7211  140.0400  162.3257 C.ar    1  UNL1        0.0005
     28 O         138.1653  139.9546  158.3829 O.3     1  UNL1       -0.4045
     29 C         137.9801  140.8921  157.2267 C.3     1  UNL1        0.5753
     30 F         137.7950  141.8295  156.0704 F       1  UNL1       -0.1328
     31 F         139.4686  141.0020  157.0774 F       1  UNL1       -0.1328
     32 F         136.4916  140.7822  157.3759 F       1  UNL1       -0.1328
@<TRIPOS>BOND
     1     1     2    2
     2     2     3   am
     3     3    21    1
     4    21    22    1
     5    22    23   ar
     6    23    24   ar
     7    24    25   ar
     8    25    28    1
     9    28    29    1
    10    29    30    1
    11    29    31    1
    12    29    32    1
    13    25    26   ar
    14    26    27   ar
    15     2     5    1
    16     5     6    1
    17     6     7   ar
    18     7     8   ar
    19     8     9   ar
    20     9    10   ar
    21    10    11   ar
    22    11    12    1
    23    12    13    2
    24    12    14   am
    25    14    15    1
    26    15    16    1
    27    16    17    1
    28    17    18    1
    29    18    19    1
    30    19    20    1
    31    27    22   ar
    32    14     5    1
    33    20    15    1
    34    11     6   ar
    35     3     4    1
@<TRIPOS>MOLECULE
*****
 32 35 0 0 0
SMALL
GASTEIGER

@<TRIPOS>ATOM
      1 O         142.8551  141.3815  162.1788 O.2     1  UNL1       -0.2729
      2 C         142.1561  140.0545  162.1931 C.2     1  UNL1        0.2451
      3 N         142.4909  139.0418  163.2479 N.am    1  UNL1       -0.2988
      4 H         142.0321  138.1707  163.2573 H       1  UNL1        0.1498
      5 C         141.1223  139.7400  161.1527 C.3     1  UNL1        0.1751
      6 C         141.3561  138.9865  159.8770 C.ar    1  UNL1        0.0089
      7 C         142.5884  138.3643  159.2903 C.ar    1  UNL1       -0.0021
      8 C         142.5161  137.6602  157.9678 C.ar    1  UNL1       -0.0003
      9 C         141.2115  137.5784  157.2320 C.ar    1  UNL1        0.0001
     10 C         139.9792  138.2006  157.8187 C.ar    1  UNL1        0.0043
     11 C         140.0515  138.9047  159.1412 C.ar    1  UNL1        0.0516
     12 C         139.0114  139.6076  159.9623 C.2     1  UNL1        0.2493
     13 O         137.5637  139.7664  159.6031 O.2     1  UNL1       -0.2699
     14 N         139.6732  140.1239  161.2054 N.am    1  UNL1       -0.2676
     15 C         139.0035  140.8897  162.3078 C.3     1  UNL1        0.0813
     16 C         138.9311  140.3080  163.6885 C.3     1  UNL1        0.0520
     17 C         138.2614  141.0737  164.7908 C.3     1  UNL1        0.1439
     18 O         137.6640  142.4211  164.5124 O.3     1  UNL1       -0.3537
     19 C         137.7364  143.0028  163.1317 C.3     1  UNL1        0.1439
     20 C         138.4061  142.2371  162.0294 C.3     1  UNL1        0.0520
     21 C         143.5247  139.3562  164.2883 C.3     1  UNL1        0.1164
     22 C         143.1062  139.9101  165.6179 C.ar    1  UNL1       -0.0024
     23 C         142.8215  141.3755  165.7640 C.ar    1  UNL1        0.0005
     24 C         142.4030  141.9293  167.0937 C.ar    1  UNL1        0.0369
     25 C         142.2691  141.0177  168.2774 C.ar    1  UNL1        0.1468
     26 C         142.5538  139.5522  168.1313 C.ar    1  UNL1        0.0369
     27 C         142.9723  138.9984  166.8016 C.ar    1  UNL1        0.0005
     28 O         141.8506  141.5716  169.6071 O.3     1  UNL1       -0.4045
     29 C         141.2612  142.9481  169.6943 C.3     1  UNL1        0.5753
     30 F         140.6717  144.3247  169.7815 F       1  UNL1       -0.1328
     31 F         139.9289  142.4045  169.2705 F       1  UNL1       -0.1328
     32 F         142.5934  143.4918  170.1181 F       1  UNL1       -0.1328
@<TRIPOS>BOND
     1     1     2    2
     2     2     3   am
     3     3    21    1
     4    21    22    1
     5    22    23   ar
     6    23    24   ar
     7    24    25   ar
     8    25    28    1
     9    28    29    1
    10    29    30    1
    11    29    31    1
    12    29    32    1
    13    25    26   ar
    14    26    27   ar
    15     2     5    1
    16     5     6    1
    17     6     7   ar
    18     7     8   ar
    19     8     9   ar
    20     9    10   ar
    21    10    11   ar
    22    11    12    1
    23    12    13    2
    24    12    14   am
    25    14    15    1
    26    15    16    1
    27    16    17    1
    28    17    18    1
    29    18    19    1
    30    19    20    1
    31    27    22   ar
    32    14     5    1
    33    20    15    1
    34    11     6   ar
    35     3     4    1
@<TRIPOS>MOLECULE
*****
 32 35 0 0 0
SMALL
GASTEIGER

@<TRIPOS>ATOM
      1 O         137.7100  143.3382  162.0244 O.2     1  UNL1       -0.2729
      2 C         138.9271  142.6224  161.5184 C.2     1  UNL1        0.2451
      3 N         139.4095  141.3819  162.2104 N.am    1  UNL1       -0.2988
      4 H         140.2084  140.9120  161.8783 H       1  UNL1        0.1498
      5 C         139.6620  143.1469  160.3206 C.3     1  UNL1        0.1751
      6 C         139.2069  143.0493  158.8946 C.ar    1  UNL1        0.0089
      7 C         137.9817  142.4494  158.2709 C.ar    1  UNL1       -0.0021
      8 C         137.7942  142.5035  156.7837 C.ar    1  UNL1       -0.0003
      9 C         138.8319  143.1574  155.9202 C.ar    1  UNL1        0.0001
     10 C         140.0571  143.7572  156.5439 C.ar    1  UNL1        0.0043
     11 C         140.2446  143.7032  158.0311 C.ar    1  UNL1        0.0516
     12 C         141.3410  144.2049  158.9234 C.2     1  UNL1        0.2493
     13 O         142.5799  144.9242  158.4788 O.2     1  UNL1       -0.2699
     14 N         140.9809  143.8611  160.3384 N.am    1  UNL1       -0.2676
     15 C         141.7966  144.1762  161.5572 C.3     1  UNL1        0.0813
     16 C         141.2333  145.0628  162.6280 C.3     1  UNL1        0.0520
     17 C         142.0489  145.3779  163.8468 C.3     1  UNL1        0.1439
     18 O         143.4279  144.8064  163.9948 O.3     1  UNL1       -0.3537
     19 C         143.9912  143.9199  162.9240 C.3     1  UNL1        0.1439
     20 C         143.1755  143.6048  161.7052 C.3     1  UNL1        0.0520
     21 C         138.6746  140.8573  163.4082 C.3     1  UNL1        0.1164
     22 C         139.2471  141.0470  164.7816 C.ar    1  UNL1       -0.0024
     23 C         139.9338  142.3324  165.1370 C.ar    1  UNL1        0.0005
     24 C         140.5063  142.5220  166.5104 C.ar    1  UNL1        0.0369
     25 C         140.3922  141.4262  167.5285 C.ar    1  UNL1        0.1468
     26 C         139.7055  140.1409  167.1731 C.ar    1  UNL1        0.0369
     27 C         139.1330  139.9512  165.7996 C.ar    1  UNL1        0.0005
     28 O         140.9647  141.6159  168.9018 O.3     1  UNL1       -0.4045
     29 C         141.0443  142.9900  169.4981 C.3     1  UNL1        0.5753
     30 F         141.1239  144.3641  170.0944 F       1  UNL1       -0.1328
     31 F         142.4927  143.0716  169.1168 F       1  UNL1       -0.1328
     32 F         139.5959  142.9084  169.8795 F       1  UNL1       -0.1328
@<TRIPOS>BOND
     1     1     2    2
     2     2     3   am
     3     3    21    1
     4    21    22    1
     5    22    23   ar
     6    23    24   ar
     7    24    25   ar
     8    25    28    1
     9    28    29    1
    10    29    30    1
    11    29    31    1
    12    29    32    1
    13    25    26   ar
    14    26    27   ar
    15     2     5    1
    16     5     6    1
    17     6     7   ar
    18     7     8   ar
    19     8     9   ar
    20     9    10   ar
    21    10    11   ar
    22    11    12    1
    23    12    13    2
    24    12    14   am
    25    14    15    1
    26    15    16    1
    27    16    17    1
    28    17    18    1
    29    18    19    1
    30    19    20    1
    31    27    22   ar
    32    14     5    1
    33    20    15    1
    34    11     6   ar
    35     3     4    1
