@<TRIPOS>MOLECULE
*****
 33 35 0 0 0
SMALL
GASTEIGER

@<TRIPOS>ATOM
      1 C         139.8021  139.4693  165.4947 C.ar    1  UNL1        0.0505
      2 C         138.4896  138.8013  165.7795 C.ar    1  UNL1        0.0170
      3 C         137.9242  138.8205  167.1687 C.ar    1  UNL1        0.0307
      4 C         138.6712  139.5077  168.2731 C.ar    1  UNL1        0.1402
      5 F         138.1058  139.5269  169.6623 F       1  UNL1       -0.2044
      6 C         139.9837  140.1757  167.9883 C.ar    1  UNL1        0.0530
      7 C         140.5491  140.1565  166.5991 C.ar    1  UNL1        0.0167
      8 C         140.7307  140.8629  169.0927 C.3     1  UNL1        0.2282
      9 C         139.8729  141.9964  168.6139 C.3     1  UNL1        0.0610
     10 N         141.3292  139.4908  169.1880 N.2     1  UNL1       -0.0690
     11 C         142.3766  139.1995  170.2214 C.2     1  UNL1        0.3194
     12 N         142.9751  137.8273  170.3166 N.pl3   1  UNL1       -0.2480
     13 C         142.8257  140.2803  171.1595 C.3     1  UNL1        0.2593
     14 O         142.2273  141.6525  171.0642 O.3     1  UNL1       -0.3325
     15 C         141.1798  141.9437  170.0308 C.3     1  UNL1        0.2596
     16 H         142.6803  137.1179  169.7009 H       1  UNL1        0.2882
     17 H         143.6626  137.6361  170.9949 H       1  UNL1        0.2882
     18 C         140.5814  143.3159  169.9355 C.3     1  UNL1        0.4266
     19 F         139.9829  144.6881  169.8402 F       1  UNL1       -0.1673
     20 F         139.5924  142.9589  171.0053 F       1  UNL1       -0.1673
     21 F         141.5703  143.6730  168.8657 F       1  UNL1       -0.1673
     22 C         141.0883  138.2333  163.6058 C.2     1  UNL1        0.2688
     23 O         141.2436  137.0356  164.4954 O.2     1  UNL1       -0.2681
     24 N         140.3676  139.4502  164.1055 N.am    1  UNL1       -0.2791
     25 H         140.2657  140.2363  163.5216 H       1  UNL1        0.1552
     26 C         142.7847  138.1758  159.4382 C.ar    1  UNL1        0.2449
     27 C         141.3136  138.3820  159.6464 C.ar    1  UNL1        0.1565
     28 N         140.7482  138.4011  161.0356 N.ar    1  UNL1       -0.2328
     29 C         141.6538  138.2141  162.2166 C.ar    1  UNL1        0.1541
     30 C         143.1248  138.0079  162.0084 C.ar    1  UNL1        0.1258
     31 N         143.6903  137.9887  160.6192 N.ar    1  UNL1       -0.2071
     32 C         142.6033  137.4691  156.9447 C.3     1  UNL1        0.2543
     33 O         143.3501  138.1566  158.0490 O.3     1  UNL1       -0.4551
@<TRIPOS>BOND
     1    32    33    1
     2    33    26    1
     3    26    27   ar
     4    27    28   ar
     5    28    29   ar
     6    29    22    1
     7    22    23    2
     8    22    24   am
     9    24     1    1
    10     1     2   ar
    11     2     3   ar
    12     3     4   ar
    13     4     5    1
    14     4     6   ar
    15     6     8    1
    16     8     9    1
    17     8    10    1
    18    10    11    2
    19    11    12    1
    20    11    13    1
    21    13    14    1
    22    14    15    1
    23    15    18    1
    24    18    19    1
    25    18    20    1
    26    18    21    1
    27     6     7   ar
    28    29    30   ar
    29    30    31   ar
    30    31    26   ar
    31     7     1   ar
    32    15     8    1
    33    24    25    1
    34    12    16    1
    35    12    17    1
@<TRIPOS>MOLECULE
*****
 33 35 0 0 0
SMALL
GASTEIGER

@<TRIPOS>ATOM
      1 C         142.0823  140.6734  165.1475 C.ar    1  UNL1        0.0505
      2 C         142.8694  139.4016  165.0325 C.ar    1  UNL1        0.0170
      3 C         143.2289  138.6279  166.2662 C.ar    1  UNL1        0.0307
      4 C         142.8014  139.1260  167.6150 C.ar    1  UNL1        0.1402
      5 F         143.1609  138.3523  168.8488 F       1  UNL1       -0.2044
      6 C         142.0143  140.3977  167.7300 C.ar    1  UNL1        0.0530
      7 C         141.6547  141.1714  166.4963 C.ar    1  UNL1        0.0167
      8 C         141.5867  140.8957  169.0788 C.3     1  UNL1        0.2282
      9 C         140.3745  140.0978  168.6995 C.3     1  UNL1        0.0610
     10 N         142.9474  141.5207  168.9898 N.2     1  UNL1       -0.0690
     11 C         143.4595  142.3665  170.1177 C.2     1  UNL1        0.3194
     12 N         144.8202  142.9915  170.0286 N.pl3   1  UNL1       -0.2480
     13 C         142.6110  142.5874  171.3347 C.3     1  UNL1        0.2593
     14 O         141.2502  141.9624  171.4238 O.3     1  UNL1       -0.3325
     15 C         140.7382  141.1166  170.2958 C.3     1  UNL1        0.2596
     16 H         145.3772  142.8465  169.2298 H       1  UNL1        0.2882
     17 H         145.1563  143.5467  170.7689 H       1  UNL1        0.2882
     18 C         139.3775  140.4916  170.3849 C.3     1  UNL1        0.4266
     19 F         138.0167  139.8666  170.4740 F       1  UNL1       -0.1673
     20 F         138.7783  141.7033  169.7346 F       1  UNL1       -0.1673
     21 F         139.9765  139.2799  171.0352 F       1  UNL1       -0.1673
     22 C         142.5156  142.6620  163.5328 C.2     1  UNL1        0.2688
     23 O         143.6680  143.1033  164.3855 O.2     1  UNL1       -0.2681
     24 N         141.7227  141.4471  163.9138 N.am    1  UNL1       -0.2791
     25 H         140.9663  141.1574  163.3541 H       1  UNL1        0.1552
     26 C         141.4369  144.9831  159.8315 C.ar    1  UNL1        0.2449
     27 C         140.6351  145.1584  161.0870 C.ar    1  UNL1        0.1565
     28 N         140.9946  144.3847  162.3207 N.ar    1  UNL1       -0.2328
     29 C         142.1560  143.4357  162.2990 C.ar    1  UNL1        0.1541
     30 C         142.9579  143.2604  161.0436 C.ar    1  UNL1        0.1258
     31 N         142.5983  144.0341  159.8098 N.ar    1  UNL1       -0.2071
     32 C         142.0708  145.8936  157.4822 C.3     1  UNL1        0.2543
     33 O         141.0774  145.7568  158.5978 O.3     1  UNL1       -0.4551
@<TRIPOS>BOND
     1    32    33    1
     2    33    26    1
     3    26    27   ar
     4    27    28   ar
     5    28    29   ar
     6    29    22    1
     7    22    23    2
     8    22    24   am
     9    24     1    1
    10     1     2   ar
    11     2     3   ar
    12     3     4   ar
    13     4     5    1
    14     4     6   ar
    15     6     8    1
    16     8     9    1
    17     8    10    1
    18    10    11    2
    19    11    12    1
    20    11    13    1
    21    13    14    1
    22    14    15    1
    23    15    18    1
    24    18    19    1
    25    18    20    1
    26    18    21    1
    27     6     7   ar
    28    29    30   ar
    29    30    31   ar
    30    31    26   ar
    31     7     1   ar
    32    15     8    1
    33    24    25    1
    34    12    16    1
    35    12    17    1
@<TRIPOS>MOLECULE
*****
 33 35 0 0 0
SMALL
GASTEIGER

@<TRIPOS>ATOM
      1 C         142.8969  141.2433  164.7142 C.ar    1  UNL1        0.0505
      2 C         143.6147  139.9288  164.6313 C.ar    1  UNL1        0.0170
      3 C         143.6411  139.0124  165.8186 C.ar    1  UNL1        0.0307
      4 C         142.9496  139.4106  167.0888 C.ar    1  UNL1        0.1402
      5 F         142.9759  138.4943  168.2761 F       1  UNL1       -0.2044
      6 C         142.2318  140.7251  167.1717 C.ar    1  UNL1        0.0530
      7 C         142.2055  141.6414  165.9844 C.ar    1  UNL1        0.0167
      8 C         141.5404  141.1233  168.4419 C.3     1  UNL1        0.2282
      9 C         142.8119  141.9067  168.5809 C.3     1  UNL1        0.0610
     10 N         140.5089  140.2016  167.8618 N.2     1  UNL1       -0.0690
     11 C         139.2277  139.9501  168.6001 C.2     1  UNL1        0.3194
     12 N         138.1962  139.0283  168.0200 N.pl3   1  UNL1       -0.2480
     13 C         138.9778  140.6203  169.9186 C.3     1  UNL1        0.2593
     14 O         140.0093  141.5421  170.4987 O.3     1  UNL1       -0.3325
     15 C         141.2905  141.7935  169.7603 C.3     1  UNL1        0.2596
     16 H         138.3602  138.5884  167.1546 H       1  UNL1        0.2882
     17 H         137.3553  138.8633  168.5046 H       1  UNL1        0.2882
     18 C         142.3220  142.7153  170.3405 C.3     1  UNL1        0.4266
     19 F         143.3535  143.6370  170.9206 F       1  UNL1       -0.1673
     20 F         141.4932  143.8979  169.9349 F       1  UNL1       -0.1673
     21 F         143.1508  141.5327  170.7460 F       1  UNL1       -0.1673
     22 C         141.6045  142.3333  162.7416 C.2     1  UNL1        0.2688
     23 O         140.3648  141.5907  163.1435 O.2     1  UNL1       -0.2681
     24 N         142.8705  142.1596  163.5270 N.am    1  UNL1       -0.2791
     25 H         143.6842  142.6470  163.2632 H       1  UNL1        0.1552
     26 C         141.5255  145.0823  159.1797 C.ar    1  UNL1        0.2449
     27 C         140.4763  145.2044  160.2447 C.ar    1  UNL1        0.1565
     28 N         140.5027  144.2881  161.4320 N.ar    1  UNL1       -0.2328
     29 C         141.5781  143.2496  161.5543 C.ar    1  UNL1        0.1541
     30 C         142.6273  143.1275  160.4892 C.ar    1  UNL1        0.1258
     31 N         142.6009  144.0439  159.3019 N.ar    1  UNL1       -0.2071
     32 C         140.3061  146.0142  157.0834 C.3     1  UNL1        0.2543
     33 O         141.4991  145.9986  157.9924 O.3     1  UNL1       -0.4551
@<TRIPOS>BOND
     1    32    33    1
     2    33    26    1
     3    26    27   ar
     4    27    28   ar
     5    28    29   ar
     6    29    22    1
     7    22    23    2
     8    22    24   am
     9    24     1    1
    10     1     2   ar
    11     2     3   ar
    12     3     4   ar
    13     4     5    1
    14     4     6   ar
    15     6     8    1
    16     8     9    1
    17     8    10    1
    18    10    11    2
    19    11    12    1
    20    11    13    1
    21    13    14    1
    22    14    15    1
    23    15    18    1
    24    18    19    1
    25    18    20    1
    26    18    21    1
    27     6     7   ar
    28    29    30   ar
    29    30    31   ar
    30    31    26   ar
    31     7     1   ar
    32    15     8    1
    33    24    25    1
    34    12    16    1
    35    12    17    1
@<TRIPOS>MOLECULE
*****
 33 35 0 0 0
SMALL
GASTEIGER

@<TRIPOS>ATOM
      1 C         140.6513  139.3606  165.2038 C.ar    1  UNL1        0.0505
      2 C         139.2573  138.8077  165.2409 C.ar    1  UNL1        0.0170
      3 C         138.4423  138.9123  166.4958 C.ar    1  UNL1        0.0307
      4 C         139.0212  139.5697  167.7135 C.ar    1  UNL1        0.1402
      5 F         138.2061  139.6743  168.9684 F       1  UNL1       -0.2044
      6 C         140.4151  140.1225  167.6763 C.ar    1  UNL1        0.0530
      7 C         141.2301  140.0179  166.4214 C.ar    1  UNL1        0.0167
      8 C         140.9939  140.7799  168.8940 C.3     1  UNL1        0.2282
      9 C         140.1824  141.9160  168.3455 C.3     1  UNL1        0.0610
     10 N         141.6044  139.4156  169.0196 N.2     1  UNL1       -0.0690
     11 C         142.5118  139.1032  170.1723 C.2     1  UNL1        0.3194
     12 N         143.1223  137.7388  170.2979 N.pl3   1  UNL1       -0.2480
     13 C         142.8088  140.1551  171.1995 C.3     1  UNL1        0.2593
     14 O         142.1983  141.5195  171.0740 O.3     1  UNL1       -0.3325
     15 C         141.2909  141.8319  169.9212 C.3     1  UNL1        0.2596
     16 H         142.9274  137.0483  169.6237 H       1  UNL1        0.2882
     17 H         143.7179  137.5337  171.0545 H       1  UNL1        0.2882
     18 C         140.6804  143.1963  169.7956 C.3     1  UNL1        0.4266
     19 F         140.0699  144.5607  169.6700 F       1  UNL1       -0.1673
     20 F         141.8267  143.6296  168.9304 F       1  UNL1       -0.1673
     21 F         139.5342  142.7631  170.6607 F       1  UNL1       -0.1673
     22 C         141.3137  140.2842  162.8675 C.2     1  UNL1        0.2688
     23 O         140.3459  141.4170  163.0410 O.2     1  UNL1       -0.2681
     24 N         141.4664  139.2560  163.9489 N.am    1  UNL1       -0.2791
     25 H         142.1015  138.5124  163.8350 H       1  UNL1        0.1552
     26 C         143.7589  139.9704  159.1029 C.ar    1  UNL1        0.2449
     27 C         142.6853  141.0119  159.2152 C.ar    1  UNL1        0.1565
     28 N         141.8702  141.1165  160.4701 N.ar    1  UNL1       -0.2328
     29 C         142.1287  140.1796  161.6126 C.ar    1  UNL1        0.1541
     30 C         143.2023  139.1381  161.5002 C.ar    1  UNL1        0.1258
     31 N         144.0174  139.0335  160.2453 N.ar    1  UNL1       -0.2071
     32 C         144.1119  140.5481  156.5945 C.3     1  UNL1        0.2543
     33 O         144.5739  139.8658  157.8480 O.3     1  UNL1       -0.4551
@<TRIPOS>BOND
     1    32    33    1
     2    33    26    1
     3    26    27   ar
     4    27    28   ar
     5    28    29   ar
     6    29    22    1
     7    22    23    2
     8    22    24   am
     9    24     1    1
    10     1     2   ar
    11     2     3   ar
    12     3     4   ar
    13     4     5    1
    14     4     6   ar
    15     6     8    1
    16     8     9    1
    17     8    10    1
    18    10    11    2
    19    11    12    1
    20    11    13    1
    21    13    14    1
    22    14    15    1
    23    15    18    1
    24    18    19    1
    25    18    20    1
    26    18    21    1
    27     6     7   ar
    28    29    30   ar
    29    30    31   ar
    30    31    26   ar
    31     7     1   ar
    32    15     8    1
    33    24    25    1
    34    12    16    1
    35    12    17    1
@<TRIPOS>MOLECULE
*****
 33 35 0 0 0
SMALL
GASTEIGER

@<TRIPOS>ATOM
      1 C         140.2174  140.8499  164.9914 C.ar    1  UNL1        0.0505
      2 C         139.0606  139.8950  164.9786 C.ar    1  UNL1        0.0170
      3 C         138.4963  139.3832  166.2707 C.ar    1  UNL1        0.0307
      4 C         139.0888  139.8263  167.5756 C.ar    1  UNL1        0.1402
      5 F         138.5244  139.3145  168.8678 F       1  UNL1       -0.2044
      6 C         140.2455  140.7812  167.5884 C.ar    1  UNL1        0.0530
      7 C         140.8098  141.2930  166.2962 C.ar    1  UNL1        0.0167
      8 C         140.8379  141.2242  168.8932 C.3     1  UNL1        0.2282
      9 C         139.9629  142.4043  168.5904 C.3     1  UNL1        0.0610
     10 N         141.5072  139.8903  168.7430 N.2     1  UNL1       -0.0690
     11 C         142.4650  139.4092  169.7923 C.2     1  UNL1        0.3194
     12 N         143.1342  138.0752  169.6420 N.pl3   1  UNL1       -0.2480
     13 C         142.7535  140.2621  170.9921 C.3     1  UNL1        0.2593
     14 O         142.0842  141.5961  171.1424 O.3     1  UNL1       -0.3325
     15 C         141.1264  142.0771  170.0930 C.3     1  UNL1        0.2596
     16 H         142.9449  137.5154  168.8546 H       1  UNL1        0.2882
     17 H         143.7629  137.7595  170.3308 H       1  UNL1        0.2882
     18 C         140.4572  143.4111  170.2433 C.3     1  UNL1        0.4266
     19 F         139.7879  144.7451  170.3936 F       1  UNL1       -0.1673
     20 F         141.7145  144.0929  169.7911 F       1  UNL1       -0.1673
     21 F         139.1999  142.7294  170.6955 F       1  UNL1       -0.1673
     22 C         140.4406  142.7440  163.2271 C.2     1  UNL1        0.2688
     23 O         139.5352  143.6144  164.0471 O.2     1  UNL1       -0.2681
     24 N         140.7818  141.3617  163.6992 N.am    1  UNL1       -0.2791
     25 H         141.3760  140.7904  163.1611 H       1  UNL1        0.1552
     26 C         142.1336  144.2793  159.3507 C.ar    1  UNL1        0.2449
     27 C         140.9567  144.9650  159.9789 C.ar    1  UNL1        0.1565
     28 N         140.3924  144.4532  161.2710 N.ar    1  UNL1       -0.2328
     29 C         141.0050  143.2557  161.9350 C.ar    1  UNL1        0.1541
     30 C         142.1819  142.5701  161.3068 C.ar    1  UNL1        0.1258
     31 N         142.7462  143.0819  160.0146 N.ar    1  UNL1       -0.2071
     32 C         142.0035  145.8988  157.3233 C.3     1  UNL1        0.2543
     33 O         142.6980  144.7911  158.0586 O.3     1  UNL1       -0.4551
@<TRIPOS>BOND
     1    32    33    1
     2    33    26    1
     3    26    27   ar
     4    27    28   ar
     5    28    29   ar
     6    29    22    1
     7    22    23    2
     8    22    24   am
     9    24     1    1
    10     1     2   ar
    11     2     3   ar
    12     3     4   ar
    13     4     5    1
    14     4     6   ar
    15     6     8    1
    16     8     9    1
    17     8    10    1
    18    10    11    2
    19    11    12    1
    20    11    13    1
    21    13    14    1
    22    14    15    1
    23    15    18    1
    24    18    19    1
    25    18    20    1
    26    18    21    1
    27     6     7   ar
    28    29    30   ar
    29    30    31   ar
    30    31    26   ar
    31     7     1   ar
    32    15     8    1
    33    24    25    1
    34    12    16    1
    35    12    17    1
@<TRIPOS>MOLECULE
*****
 33 35 0 0 0
SMALL
GASTEIGER

@<TRIPOS>ATOM
      1 C         139.3992  143.8447  162.4850 C.ar    1  UNL1        0.0505
      2 C         139.1826  145.0301  163.3783 C.ar    1  UNL1        0.0170
      3 C         139.3486  144.8910  164.8626 C.ar    1  UNL1        0.0307
      4 C         139.7311  143.5664  165.4536 C.ar    1  UNL1        0.1402
      5 F         139.8971  143.4273  166.9379 F       1  UNL1       -0.2044
      6 C         139.9477  142.3811  164.5603 C.ar    1  UNL1        0.0530
      7 C         139.7818  142.5202  163.0760 C.ar    1  UNL1        0.0167
      8 C         140.3303  141.0566  165.1513 C.3     1  UNL1        0.2282
      9 C         138.8397  140.9897  165.3054 C.3     1  UNL1        0.0610
     10 N         141.6880  141.5833  164.7921 N.2     1  UNL1       -0.0690
     11 C         142.9106  140.7624  165.0773 C.2     1  UNL1        0.3194
     12 N         144.2683  141.2892  164.7179 N.pl3   1  UNL1       -0.2480
     13 C         142.7755  139.4147  165.7218 C.3     1  UNL1        0.2593
     14 O         141.4177  138.8879  166.0811 O.3     1  UNL1       -0.3325
     15 C         140.1952  139.7089  165.7959 C.3     1  UNL1        0.2596
     16 H         144.3570  142.1737  164.2949 H       1  UNL1        0.2882
     17 H         145.0707  140.7504  164.9051 H       1  UNL1        0.2882
     18 C         138.8374  139.1821  166.1552 C.3     1  UNL1        0.4266
     19 F         137.4797  138.6553  166.5145 F       1  UNL1       -0.1673
     20 F         138.7270  138.5438  164.8022 F       1  UNL1       -0.1673
     21 F         138.9478  139.8203  167.5081 F       1  UNL1       -0.1673
     22 C         140.3618  144.5126  160.1662 C.2     1  UNL1        0.2688
     23 O         141.6564  144.9023  160.8159 O.2     1  UNL1       -0.2681
     24 N         139.2332  143.9838  161.0007 N.am    1  UNL1       -0.2791
     25 H         138.3835  143.7280  160.5743 H       1  UNL1        0.1552
     26 C         139.8640  144.9300  155.7133 C.ar    1  UNL1        0.2449
     27 C         140.4644  146.0507  156.5092 C.ar    1  UNL1        0.1565
     28 N         140.6304  145.9116  157.9934 N.ar    1  UNL1       -0.2328
     29 C         140.1959  144.6517  158.6819 C.ar    1  UNL1        0.1541
     30 C         139.5954  143.5310  157.8860 C.ar    1  UNL1        0.1258
     31 N         139.4295  143.6702  156.4017 N.ar    1  UNL1       -0.2071
     32 C         140.7496  145.7676  153.4190 C.3     1  UNL1        0.2543
     33 O         139.6980  145.0691  154.2290 O.3     1  UNL1       -0.4551
@<TRIPOS>BOND
     1    32    33    1
     2    33    26    1
     3    26    27   ar
     4    27    28   ar
     5    28    29   ar
     6    29    22    1
     7    22    23    2
     8    22    24   am
     9    24     1    1
    10     1     2   ar
    11     2     3   ar
    12     3     4   ar
    13     4     5    1
    14     4     6   ar
    15     6     8    1
    16     8     9    1
    17     8    10    1
    18    10    11    2
    19    11    12    1
    20    11    13    1
    21    13    14    1
    22    14    15    1
    23    15    18    1
    24    18    19    1
    25    18    20    1
    26    18    21    1
    27     6     7   ar
    28    29    30   ar
    29    30    31   ar
    30    31    26   ar
    31     7     1   ar
    32    15     8    1
    33    24    25    1
    34    12    16    1
    35    12    17    1
@<TRIPOS>MOLECULE
*****
 33 35 0 0 0
SMALL
GASTEIGER

@<TRIPOS>ATOM
      1 C         142.8492  143.6181  162.4528 C.ar    1  UNL1        0.0505
      2 C         143.7198  144.4501  163.3472 C.ar    1  UNL1        0.0170
      3 C         143.8784  144.0824  164.7928 C.ar    1  UNL1        0.0307
      4 C         143.1663  142.8826  165.3439 C.ar    1  UNL1        0.1402
      5 F         143.3248  142.5149  166.7895 F       1  UNL1       -0.2044
      6 C         142.2957  142.0507  164.4496 C.ar    1  UNL1        0.0530
      7 C         142.1372  142.4185  163.0040 C.ar    1  UNL1        0.0167
      8 C         141.5837  140.8511  165.0007 C.3     1  UNL1        0.2282
      9 C         143.0048  140.3840  165.1112 C.3     1  UNL1        0.0610
     10 N         140.4098  141.7347  164.6989 N.2     1  UNL1       -0.0690
     11 C         139.0175  141.2565  164.9865 C.2     1  UNL1        0.3194
     12 N         137.8436  142.1402  164.6846 N.pl3   1  UNL1       -0.2480
     13 C         138.7990  139.8947  165.5761 C.3     1  UNL1        0.2593
     14 O         139.9729  139.0110  165.8780 O.3     1  UNL1       -0.3325
     15 C         141.3652  139.4892  165.5903 C.3     1  UNL1        0.2596
     16 H         137.9870  143.0341  164.2976 H       1  UNL1        0.2882
     17 H         136.9298  141.8264  164.8734 H       1  UNL1        0.2882
     18 C         142.5391  138.6055  165.8922 C.3     1  UNL1        0.4266
     19 F         143.7130  137.7218  166.1941 F       1  UNL1       -0.1673
     20 F         142.6357  139.2028  167.2648 F       1  UNL1       -0.1673
     21 F         142.4426  138.0083  164.5197 F       1  UNL1       -0.1673
     22 C         141.5474  144.8557  160.5757 C.2     1  UNL1        0.2688
     23 O         140.5627  145.3578  161.5897 O.2     1  UNL1       -0.2681
     24 N         142.6906  143.9858  161.0073 N.am    1  UNL1       -0.2791
     25 H         143.3369  143.6562  160.3417 H       1  UNL1        0.1552
     26 C         141.0717  145.9588  156.2390 C.ar    1  UNL1        0.2449
     27 C         142.3474  145.3317  156.7178 C.ar    1  UNL1        0.1565
     28 N         142.5060  144.9640  158.1634 N.ar    1  UNL1       -0.2328
     29 C         141.3888  145.2234  159.1301 C.ar    1  UNL1        0.1541
     30 C         140.1132  145.8505  158.6513 C.ar    1  UNL1        0.1258
     31 N         139.9546  146.2183  157.2058 N.ar    1  UNL1       -0.2071
     32 C         139.9676  147.4215  154.3975 C.3     1  UNL1        0.2543
     33 O         140.9132  146.3266  154.7934 O.3     1  UNL1       -0.4551
@<TRIPOS>BOND
     1    32    33    1
     2    33    26    1
     3    26    27   ar
     4    27    28   ar
     5    28    29   ar
     6    29    22    1
     7    22    23    2
     8    22    24   am
     9    24     1    1
    10     1     2   ar
    11     2     3   ar
    12     3     4   ar
    13     4     5    1
    14     4     6   ar
    15     6     8    1
    16     8     9    1
    17     8    10    1
    18    10    11    2
    19    11    12    1
    20    11    13    1
    21    13    14    1
    22    14    15    1
    23    15    18    1
    24    18    19    1
    25    18    20    1
    26    18    21    1
    27     6     7   ar
    28    29    30   ar
    29    30    31   ar
    30    31    26   ar
    31     7     1   ar
    32    15     8    1
    33    24    25    1
    34    12    16    1
    35    12    17    1
@<TRIPOS>MOLECULE
*****
 33 35 0 0 0
SMALL
GASTEIGER

@<TRIPOS>ATOM
      1 C         138.8807  143.4866  162.4823 C.ar    1  UNL1        0.0505
      2 C         138.8169  144.7542  163.2817 C.ar    1  UNL1        0.0170
      3 C         139.1823  144.7427  164.7365 C.ar    1  UNL1        0.0307
      4 C         139.6116  143.4634  165.3918 C.ar    1  UNL1        0.1402
      5 F         139.9770  143.4518  166.8465 F       1  UNL1       -0.2044
      6 C         139.6754  142.1958  164.5923 C.ar    1  UNL1        0.0530
      7 C         139.3099  142.2074  163.1376 C.ar    1  UNL1        0.0167
      8 C         140.1046  140.9167  165.2476 C.3     1  UNL1        0.2282
      9 C         138.6220  140.8330  165.4593 C.3     1  UNL1        0.0610
     10 N         141.4382  141.4445  164.8084 N.2     1  UNL1       -0.0690
     11 C         142.6861  140.6642  165.0980 C.2     1  UNL1        0.3194
     12 N         144.0197  141.1921  164.6587 N.pl3   1  UNL1       -0.2480
     13 C         142.6004  139.3560  165.8268 C.3     1  UNL1        0.2593
     14 O         141.2668  138.8281  166.2660 O.3     1  UNL1       -0.3325
     15 C         140.0190  139.6085  165.9764 C.3     1  UNL1        0.2596
     16 H         144.0759  142.0508  164.1803 H       1  UNL1        0.2882
     17 H         144.8387  140.6800  164.8487 H       1  UNL1        0.2882
     18 C         138.6854  139.0806  166.4157 C.3     1  UNL1        0.4266
     19 F         137.3518  138.5527  166.8550 F       1  UNL1       -0.1673
     20 F         138.5287  138.3804  165.0984 F       1  UNL1       -0.1673
     21 F         138.8421  139.7807  167.7330 F       1  UNL1       -0.1673
     22 C         139.5909  143.4450  159.9835 C.2     1  UNL1        0.2688
     23 O         141.0321  143.3801  160.3943 O.2     1  UNL1       -0.2681
     24 N         138.5152  143.4982  161.0275 N.am    1  UNL1       -0.2791
     25 H         137.5693  143.5407  160.7579 H       1  UNL1        0.1552
     26 C         138.4946  143.4797  155.6193 C.ar    1  UNL1        0.2449
     27 C         137.7472  142.5959  156.5733 C.ar    1  UNL1        0.1565
     28 N         138.1126  142.5843  158.0281 N.ar    1  UNL1       -0.2328
     29 C         139.2255  143.4566  158.5288 C.ar    1  UNL1        0.1541
     30 C         139.9729  144.3404  157.5747 C.ar    1  UNL1        0.1258
     31 N         139.6074  144.3520  156.1200 N.ar    1  UNL1       -0.2071
     32 C         136.6880  143.5573  153.7537 C.3     1  UNL1        0.2543
     33 O         138.1291  143.4913  154.1645 O.3     1  UNL1       -0.4551
@<TRIPOS>BOND
     1    32    33    1
     2    33    26    1
     3    26    27   ar
     4    27    28   ar
     5    28    29   ar
     6    29    22    1
     7    22    23    2
     8    22    24   am
     9    24     1    1
    10     1     2   ar
    11     2     3   ar
    12     3     4   ar
    13     4     5    1
    14     4     6   ar
    15     6     8    1
    16     8     9    1
    17     8    10    1
    18    10    11    2
    19    11    12    1
    20    11    13    1
    21    13    14    1
    22    14    15    1
    23    15    18    1
    24    18    19    1
    25    18    20    1
    26    18    21    1
    27     6     7   ar
    28    29    30   ar
    29    30    31   ar
    30    31    26   ar
    31     7     1   ar
    32    15     8    1
    33    24    25    1
    34    12    16    1
    35    12    17    1
@<TRIPOS>MOLECULE
*****
 33 35 0 0 0
SMALL
GASTEIGER

@<TRIPOS>ATOM
      1 C         139.3582  143.8294  162.2414 C.ar    1  UNL1        0.0505
      2 C         138.4396  144.6422  163.1049 C.ar    1  UNL1        0.0170
      3 C         138.5732  144.5911  164.5980 C.ar    1  UNL1        0.0307
      4 C         139.6255  143.7271  165.2277 C.ar    1  UNL1        0.1402
      5 F         139.7591  143.6759  166.7208 F       1  UNL1       -0.2044
      6 C         140.5440  142.9143  164.3642 C.ar    1  UNL1        0.0530
      7 C         140.4104  142.9655  162.8710 C.ar    1  UNL1        0.0167
      8 C         141.5962  142.0504  164.9939 C.3     1  UNL1        0.2282
      9 C         142.3810  143.3131  164.7947 C.3     1  UNL1        0.0610
     10 N         140.4461  141.0876  164.9745 N.2     1  UNL1       -0.0690
     11 C         140.6207  139.6996  165.5155 C.2     1  UNL1        0.3194
     12 N         139.4706  138.7369  165.4961 N.pl3   1  UNL1       -0.2480
     13 C         141.9454  139.2742  166.0760 C.3     1  UNL1        0.2593
     14 O         143.0956  140.2370  166.0954 O.3     1  UNL1       -0.3325
     15 C         142.9209  141.6250  165.5544 C.3     1  UNL1        0.2596
     16 H         138.6011  139.0160  165.1282 H       1  UNL1        0.2882
     17 H         139.5852  137.8258  165.8512 H       1  UNL1        0.2882
     18 C         144.0711  142.5878  165.5738 C.3     1  UNL1        0.4266
     19 F         145.2212  143.5505  165.5932 F       1  UNL1       -0.1673
     20 F         143.7311  142.9654  166.9852 F       1  UNL1       -0.1673
     21 F         144.4111  142.2102  164.1625 F       1  UNL1       -0.1673
     22 C         140.2596  144.5900  159.9264 C.2     1  UNL1        0.2688
     23 O         141.4282  145.2484  160.5978 O.2     1  UNL1       -0.2681
     24 N         139.2246  143.8805  160.7482 N.am    1  UNL1       -0.2791
     25 H         138.4575  143.4484  160.3076 H       1  UNL1        0.1552
     26 C         139.8586  144.7435  155.4470 C.ar    1  UNL1        0.2449
     27 C         139.6710  143.4442  156.1727 C.ar    1  UNL1        0.1565
     28 N         139.8046  143.3931  157.6659 N.ar    1  UNL1       -0.2328
     29 C         140.1259  144.6412  158.4333 C.ar    1  UNL1        0.1541
     30 C         140.3136  145.9404  157.7076 C.ar    1  UNL1        0.1258
     31 N         140.1799  145.9916  156.2144 N.ar    1  UNL1       -0.2071
     32 C         138.9323  143.7433  153.2353 C.3     1  UNL1        0.2543
     33 O         139.7250  144.7946  153.9538 O.3     1  UNL1       -0.4551
@<TRIPOS>BOND
     1    32    33    1
     2    33    26    1
     3    26    27   ar
     4    27    28   ar
     5    28    29   ar
     6    29    22    1
     7    22    23    2
     8    22    24   am
     9    24     1    1
    10     1     2   ar
    11     2     3   ar
    12     3     4   ar
    13     4     5    1
    14     4     6   ar
    15     6     8    1
    16     8     9    1
    17     8    10    1
    18    10    11    2
    19    11    12    1
    20    11    13    1
    21    13    14    1
    22    14    15    1
    23    15    18    1
    24    18    19    1
    25    18    20    1
    26    18    21    1
    27     6     7   ar
    28    29    30   ar
    29    30    31   ar
    30    31    26   ar
    31     7     1   ar
    32    15     8    1
    33    24    25    1
    34    12    16    1
    35    12    17    1
