@<TRIPOS>MOLECULE
*****
 36 39 0 0 0
SMALL
GASTEIGER

@<TRIPOS>ATOM
      1 C         143.1195  143.7801  164.4166 C.ar    1  UNL1        0.1533
      2 C         143.7286  143.2935  165.6981 C.ar    1  UNL1        0.0573
      3 C         142.9199  142.4531  166.6413 C.ar    1  UNL1        0.0856
      4 N         143.5290  141.9665  167.9228 N.ar    1  UNL1       -0.2435
      5 C         142.7203  141.1261  168.8660 C.ar    1  UNL1        0.1045
      6 C         141.3024  140.7723  168.5277 C.ar    1  UNL1        0.0856
      7 C         140.6933  141.2589  167.2462 C.ar    1  UNL1        0.0557
      8 C         141.5020  142.0993  166.3030 C.ar    1  UNL1        0.0327
      9 C         140.8929  142.5859  165.0216 C.ar    1  UNL1        0.0203
     10 C         141.7017  143.4263  164.0784 C.ar    1  UNL1        0.0826
     11 N         141.0925  143.9129  162.7969 N.pl3   1  UNL1       -0.3004
     12 C         140.6318  145.3355  162.6782 C.3     1  UNL1        0.1231
     13 C         140.0226  145.8221  161.3968 C.3     1  UNL1        0.1636
     14 O         139.8742  144.8862  160.2339 O.3     1  UNL1       -0.3501
     15 C         140.3349  143.4636  160.3526 C.3     1  UNL1        0.1636
     16 C         140.9441  142.9770  161.6341 C.3     1  UNL1        0.1231
     17 C         140.4936  139.9319  169.4709 C.2     1  UNL1        0.2455
     18 N         141.1777  139.1450  170.5492 N.am    1  UNL1       -0.3252
     19 O         139.0006  139.8783  169.3357 O.2     1  UNL1       -0.2703
     20 H         142.1576  139.1802  170.6379 H       1  UNL1        0.1453
     21 H         140.6469  138.5935  171.1682 H       1  UNL1        0.1453
     22 N         139.2754  140.9051  166.9080 N.pl3   1  UNL1       -0.3106
     23 H         138.5474  141.1447  167.5260 H       1  UNL1        0.1523
     24 C         138.9666  140.1862  165.6281 C.ar    1  UNL1        0.0761
     25 C         139.5017  138.8042  165.3962 C.ar    1  UNL1        0.0166
     26 C         139.1930  138.0854  164.1165 C.ar    1  UNL1       -0.0028
     27 C         138.3492  138.7485  163.0684 C.ar    1  UNL1       -0.0195
     28 C         138.0405  138.0296  161.7887 C.3     1  UNL1        0.0311
     29 C         137.8141  140.1305  163.3003 C.ar    1  UNL1        0.0267
     30 C         138.1228  140.8494  164.5802 C.ar    1  UNL1        0.1531
     31 F         137.5877  142.2314  164.8120 F       1  UNL1       -0.2029
     32 O         143.9283  144.6205  163.4734 O.3     1  UNL1       -0.4715
     33 C         144.5836  143.9898  162.2806 C.3     1  UNL1        0.2374
     34 C         144.6692  142.4961  162.1743 C.3     1  UNL1        0.1894
     35 C         145.4036  140.6399  163.8373 C.3     1  UNL1        0.1743
     36 O         145.7547  141.7538  162.8960 O.3     1  UNL1       -0.3471
@<TRIPOS>BOND
     1    35    36    1
     2    36    34    1
     3    34    33    1
     4    33    32    1
     5    32     1    1
     6     1     2   ar
     7     2     3   ar
     8     3     4   ar
     9     4     5   ar
    10     5     6   ar
    11     6    17    1
    12    17    18   am
    13    17    19    2
    14     6     7   ar
    15     7    22    1
    16    22    24    1
    17    24    25   ar
    18    25    26   ar
    19    26    27   ar
    20    27    28    1
    21    27    29   ar
    22    29    30   ar
    23    30    31    1
    24     7     8   ar
    25     8     9   ar
    26     9    10   ar
    27    10    11    1
    28    11    12    1
    29    12    13    1
    30    13    14    1
    31    14    15    1
    32    15    16    1
    33    10     1   ar
    34    16    11    1
    35     8     3   ar
    36    30    24   ar
    37    18    20    1
    38    18    21    1
    39    22    23    1
@<TRIPOS>MOLECULE
*****
 36 39 0 0 0
SMALL
GASTEIGER

@<TRIPOS>ATOM
      1 C         139.7953  138.1560  163.0113 C.ar    1  UNL1        0.1533
      2 C         138.7495  138.0160  164.0774 C.ar    1  UNL1        0.0573
      3 C         138.9483  138.6683  165.4134 C.ar    1  UNL1        0.0856
      4 N         137.9024  138.5282  166.4795 N.ar    1  UNL1       -0.2435
      5 C         138.1013  139.1805  167.8155 C.ar    1  UNL1        0.1045
      6 C         139.3461  139.9729  168.0854 C.ar    1  UNL1        0.0856
      7 C         140.3919  140.1129  167.0194 C.ar    1  UNL1        0.0557
      8 C         140.1930  139.4606  165.6833 C.ar    1  UNL1        0.0327
      9 C         141.2389  139.6006  164.6173 C.ar    1  UNL1        0.0203
     10 C         141.0400  138.9483  163.2812 C.ar    1  UNL1        0.0826
     11 N         142.0859  139.0884  162.2151 N.pl3   1  UNL1       -0.3004
     12 C         143.1085  138.0082  162.0213 C.3     1  UNL1        0.1231
     13 C         144.1544  138.1482  160.9552 C.3     1  UNL1        0.1636
     14 O         144.1777  139.3684  160.0830 O.3     1  UNL1       -0.3501
     15 C         143.1551  140.4485  160.2768 C.3     1  UNL1        0.1636
     16 C         142.1092  140.3085  161.3430 C.3     1  UNL1        0.1231
     17 C         139.5449  140.6252  169.4215 C.2     1  UNL1        0.2455
     18 N         139.2579  139.8606  170.6796 N.am    1  UNL1       -0.3252
     19 O         140.0308  142.0422  169.4993 O.2     1  UNL1       -0.2703
     20 H         138.9390  138.9305  170.6285 H       1  UNL1        0.1453
     21 H         139.3884  140.2887  171.5564 H       1  UNL1        0.1453
     22 N         141.6366  140.9052  167.2893 N.pl3   1  UNL1       -0.3106
     23 H         142.1555  140.7423  168.1099 H       1  UNL1        0.1523
     24 C         142.0906  141.9458  166.3089 C.ar    1  UNL1        0.0761
     25 C         143.5358  142.0252  165.9149 C.ar    1  UNL1        0.0166
     26 C         143.9899  143.0657  164.9346 C.ar    1  UNL1       -0.0028
     27 C         142.9988  144.0270  164.3483 C.ar    1  UNL1       -0.0195
     28 C         143.4529  145.0675  163.3680 C.3     1  UNL1        0.0311
     29 C         141.5536  143.9477  164.7423 C.ar    1  UNL1        0.0267
     30 C         141.0996  142.9071  165.7227 C.ar    1  UNL1        0.1531
     31 F         139.6544  142.8278  166.1167 F       1  UNL1       -0.2029
     32 O         139.5964  137.5037  161.6753 O.3     1  UNL1       -0.4715
     33 C         139.0769  138.3056  160.5190 C.3     1  UNL1        0.2374
     34 C         137.9624  139.2875  160.7279 C.3     1  UNL1        0.1894
     35 C         137.6816  141.2283  162.4322 C.3     1  UNL1        0.1743
     36 O         138.2700  140.6901  161.1617 O.3     1  UNL1       -0.3471
@<TRIPOS>BOND
     1    35    36    1
     2    36    34    1
     3    34    33    1
     4    33    32    1
     5    32     1    1
     6     1     2   ar
     7     2     3   ar
     8     3     4   ar
     9     4     5   ar
    10     5     6   ar
    11     6    17    1
    12    17    18   am
    13    17    19    2
    14     6     7   ar
    15     7    22    1
    16    22    24    1
    17    24    25   ar
    18    25    26   ar
    19    26    27   ar
    20    27    28    1
    21    27    29   ar
    22    29    30   ar
    23    30    31    1
    24     7     8   ar
    25     8     9   ar
    26     9    10   ar
    27    10    11    1
    28    11    12    1
    29    12    13    1
    30    13    14    1
    31    14    15    1
    32    15    16    1
    33    10     1   ar
    34    16    11    1
    35     8     3   ar
    36    30    24   ar
    37    18    20    1
    38    18    21    1
    39    22    23    1
@<TRIPOS>MOLECULE
*****
 36 39 0 0 0
SMALL
GASTEIGER

@<TRIPOS>ATOM
      1 C         143.8419  142.1363  164.5443 C.ar    1  UNL1        0.1533
      2 C         143.7124  142.6053  165.9631 C.ar    1  UNL1        0.0573
      3 C         142.7083  141.9659  166.8757 C.ar    1  UNL1        0.0856
      4 N         142.5787  142.4350  168.2946 N.ar    1  UNL1       -0.2435
      5 C         141.5746  141.7955  169.2073 C.ar    1  UNL1        0.1045
      6 C         140.7001  140.6869  168.7010 C.ar    1  UNL1        0.0856
      7 C         140.8297  140.2178  167.2821 C.ar    1  UNL1        0.0557
      8 C         141.8337  140.8573  166.3695 C.ar    1  UNL1        0.0327
      9 C         141.9633  140.3882  164.9507 C.ar    1  UNL1        0.0203
     10 C         142.9674  141.0277  164.0381 C.ar    1  UNL1        0.0826
     11 N         143.0970  140.5586  162.6192 N.pl3   1  UNL1       -0.3004
     12 C         144.0166  139.4213  162.2863 C.3     1  UNL1        0.1231
     13 C         144.1462  138.9521  160.8675 C.3     1  UNL1        0.1636
     14 O         143.3561  139.6203  159.7814 O.3     1  UNL1       -0.3501
     15 C         142.4365  140.7577  160.1143 C.3     1  UNL1        0.1636
     16 C         142.3069  141.2268  161.5332 C.3     1  UNL1        0.1231
     17 C         139.6960  140.0474  169.6136 C.2     1  UNL1        0.2455
     18 N         140.0411  139.7991  171.0520 N.am    1  UNL1       -0.3252
     19 O         138.3467  139.6563  169.0877 O.2     1  UNL1       -0.2703
     20 H         140.9267  140.0558  171.3972 H       1  UNL1        0.1453
     21 H         139.3821  139.3794  171.6510 H       1  UNL1        0.1453
     22 N         139.9551  139.1093  166.7759 N.pl3   1  UNL1       -0.3106
     23 H         139.7840  138.3207  167.3399 H       1  UNL1        0.1523
     24 C         139.3413  139.2022  165.4104 C.ar    1  UNL1        0.0761
     25 C         138.4628  140.3667  165.0607 C.ar    1  UNL1        0.0166
     26 C         137.8490  140.4597  163.6952 C.ar    1  UNL1       -0.0028
     27 C         138.1137  139.3882  162.6793 C.ar    1  UNL1       -0.0195
     28 C         137.4999  139.4812  161.3139 C.3     1  UNL1        0.0311
     29 C         138.9922  138.2237  163.0290 C.ar    1  UNL1        0.0267
     30 C         139.6060  138.1308  164.3946 C.ar    1  UNL1        0.1531
     31 F         140.4845  136.9663  164.7443 F       1  UNL1       -0.2029
     32 O         144.8460  142.7757  163.6317 O.3     1  UNL1       -0.4715
     33 C         144.4280  143.8922  162.7213 C.3     1  UNL1        0.2374
     34 C         143.3877  144.8756  163.1693 C.3     1  UNL1        0.1894
     35 C         140.9545  144.6584  164.0539 C.3     1  UNL1        0.1743
     36 O         141.9351  144.5962  162.9204 O.3     1  UNL1       -0.3471
@<TRIPOS>BOND
     1    35    36    1
     2    36    34    1
     3    34    33    1
     4    33    32    1
     5    32     1    1
     6     1     2   ar
     7     2     3   ar
     8     3     4   ar
     9     4     5   ar
    10     5     6   ar
    11     6    17    1
    12    17    18   am
    13    17    19    2
    14     6     7   ar
    15     7    22    1
    16    22    24    1
    17    24    25   ar
    18    25    26   ar
    19    26    27   ar
    20    27    28    1
    21    27    29   ar
    22    29    30   ar
    23    30    31    1
    24     7     8   ar
    25     8     9   ar
    26     9    10   ar
    27    10    11    1
    28    11    12    1
    29    12    13    1
    30    13    14    1
    31    14    15    1
    32    15    16    1
    33    10     1   ar
    34    16    11    1
    35     8     3   ar
    36    30    24   ar
    37    18    20    1
    38    18    21    1
    39    22    23    1
@<TRIPOS>MOLECULE
*****
 36 39 0 0 0
SMALL
GASTEIGER

@<TRIPOS>ATOM
      1 C         142.3025  139.7722  167.6827 C.ar    1  UNL1        0.1533
      2 C         142.7810  138.8642  166.5888 C.ar    1  UNL1        0.0573
      3 C         142.0552  138.8233  165.2768 C.ar    1  UNL1        0.0856
      4 N         142.5338  137.9153  164.1829 N.ar    1  UNL1       -0.2435
      5 C         141.8080  137.8744  162.8708 C.ar    1  UNL1        0.1045
      6 C         140.6035  138.7415  162.6527 C.ar    1  UNL1        0.0856
      7 C         140.1250  139.6494  163.7465 C.ar    1  UNL1        0.0557
      8 C         140.8508  139.6903  165.0586 C.ar    1  UNL1        0.0327
      9 C         140.3723  140.5983  166.1525 C.ar    1  UNL1        0.0203
     10 C         141.0981  140.6392  167.4645 C.ar    1  UNL1        0.0826
     11 N         140.6195  141.5472  168.5584 N.pl3   1  UNL1       -0.3004
     12 C         139.6398  141.0433  169.5764 C.3     1  UNL1        0.1231
     13 C         139.1612  141.9512  170.6703 C.3     1  UNL1        0.1636
     14 O         139.6622  143.3631  170.7462 O.3     1  UNL1       -0.3501
     15 C         140.6419  143.8669  169.7282 C.3     1  UNL1        0.1636
     16 C         141.1206  142.9589  168.6343 C.3     1  UNL1        0.1231
     17 C         139.8777  138.7006  161.3406 C.2     1  UNL1        0.2455
     18 N         140.6456  138.7928  160.0555 N.am    1  UNL1       -0.3252
     19 O         138.3838  138.5675  161.3138 O.2     1  UNL1       -0.2703
     20 H         141.6261  138.8801  160.0731 H       1  UNL1        0.1453
     21 H         140.1692  138.7659  159.1943 H       1  UNL1        0.1453
     22 N         138.9206  140.5165  163.5284 N.pl3   1  UNL1       -0.3106
     23 H         138.0178  140.1483  163.6647 H       1  UNL1        0.1523
     24 C         139.0917  141.9445  163.1024 C.ar    1  UNL1        0.0761
     25 C         140.0720  142.2925  162.0217 C.ar    1  UNL1        0.0166
     26 C         140.2432  143.7205  161.5957 C.ar    1  UNL1       -0.0028
     27 C         139.4339  144.8006  162.2504 C.ar    1  UNL1       -0.0195
     28 C         139.6051  146.2286  161.8245 C.3     1  UNL1        0.0311
     29 C         138.4536  144.4527  163.3311 C.ar    1  UNL1        0.0267
     30 C         138.2825  143.0246  163.7571 C.ar    1  UNL1        0.1531
     31 F         137.3022  142.6766  164.8378 F       1  UNL1       -0.2029
     32 O         143.0283  139.8131  168.9948 O.3     1  UNL1       -0.4715
     33 C         142.5818  138.9358  170.1265 C.3     1  UNL1        0.2374
     34 C         143.1838  137.5731  170.3017 C.3     1  UNL1        0.1894
     35 C         145.0304  136.0413  171.2986 C.3     1  UNL1        0.1743
     36 O         144.3967  137.3944  171.1660 O.3     1  UNL1       -0.3471
@<TRIPOS>BOND
     1    35    36    1
     2    36    34    1
     3    34    33    1
     4    33    32    1
     5    32     1    1
     6     1     2   ar
     7     2     3   ar
     8     3     4   ar
     9     4     5   ar
    10     5     6   ar
    11     6    17    1
    12    17    18   am
    13    17    19    2
    14     6     7   ar
    15     7    22    1
    16    22    24    1
    17    24    25   ar
    18    25    26   ar
    19    26    27   ar
    20    27    28    1
    21    27    29   ar
    22    29    30   ar
    23    30    31    1
    24     7     8   ar
    25     8     9   ar
    26     9    10   ar
    27    10    11    1
    28    11    12    1
    29    12    13    1
    30    13    14    1
    31    14    15    1
    32    15    16    1
    33    10     1   ar
    34    16    11    1
    35     8     3   ar
    36    30    24   ar
    37    18    20    1
    38    18    21    1
    39    22    23    1
@<TRIPOS>MOLECULE
*****
 36 39 0 0 0
SMALL
GASTEIGER

@<TRIPOS>ATOM
      1 C         138.1863  141.1594  162.7713 C.ar    1  UNL1        0.1533
      2 C         137.6287  140.2408  163.8178 C.ar    1  UNL1        0.0573
      3 C         138.2733  140.1655  165.1701 C.ar    1  UNL1        0.0856
      4 N         137.7157  139.2468  166.2166 N.ar    1  UNL1       -0.2435
      5 C         138.3602  139.1715  167.5690 C.ar    1  UNL1        0.1045
      6 C         139.5625  140.0149  167.8748 C.ar    1  UNL1        0.0856
      7 C         140.1200  140.9335  166.8283 C.ar    1  UNL1        0.0557
      8 C         139.4754  141.0088  165.4760 C.ar    1  UNL1        0.0327
      9 C         140.0330  141.9274  164.4295 C.ar    1  UNL1        0.0203
     10 C         139.3884  142.0027  163.0771 C.ar    1  UNL1        0.0826
     11 N         139.9461  142.9214  162.0306 N.pl3   1  UNL1       -0.3004
     12 C         140.8755  142.3869  160.9816 C.3     1  UNL1        0.1231
     13 C         141.4331  143.3055  159.9351 C.3     1  UNL1        0.1636
     14 O         141.0613  144.7587  159.9376 O.3     1  UNL1       -0.3501
     15 C         140.1319  145.2933  160.9866 C.3     1  UNL1        0.1636
     16 C         139.5743  144.3746  162.0332 C.3     1  UNL1        0.1231
     17 C         140.2070  139.9396  169.2272 C.2     1  UNL1        0.2455
     18 N         139.3595  139.9653  170.4645 N.am    1  UNL1       -0.3252
     19 O         141.6993  139.8385  169.3422 O.2     1  UNL1       -0.2703
     20 H         138.3801  140.0316  170.3890 H       1  UNL1        0.1453
     21 H         139.7825  139.9159  171.3520 H       1  UNL1        0.1453
     22 N         141.3222  141.7768  167.1342 N.pl3   1  UNL1       -0.3106
     23 H         141.3315  142.3484  167.9357 H       1  UNL1        0.1523
     24 C         142.5102  141.7493  166.2188 C.ar    1  UNL1        0.0761
     25 C         143.1346  143.0342  165.7615 C.ar    1  UNL1        0.0166
     26 C         144.3226  143.0068  164.8462 C.ar    1  UNL1       -0.0028
     27 C         144.8863  141.6943  164.3881 C.ar    1  UNL1       -0.0195
     28 C         146.0743  141.6668  163.4728 C.3     1  UNL1        0.0311
     29 C         144.2619  140.4094  164.8453 C.ar    1  UNL1        0.0267
     30 C         143.0738  140.4369  165.7607 C.ar    1  UNL1        0.1531
     31 F         142.4494  139.1520  166.2180 F       1  UNL1       -0.2029
     32 O         137.5417  141.2347  161.4189 O.3     1  UNL1       -0.4715
     33 C         137.5038  140.0216  160.5376 C.3     1  UNL1        0.2374
     34 C         138.7834  139.3962  160.0669 C.3     1  UNL1        0.1894
     35 C         139.8522  137.9484  161.9408 C.3     1  UNL1        0.1743
     36 O         139.2010  138.0552  160.5938 O.3     1  UNL1       -0.3471
@<TRIPOS>BOND
     1    35    36    1
     2    36    34    1
     3    34    33    1
     4    33    32    1
     5    32     1    1
     6     1     2   ar
     7     2     3   ar
     8     3     4   ar
     9     4     5   ar
    10     5     6   ar
    11     6    17    1
    12    17    18   am
    13    17    19    2
    14     6     7   ar
    15     7    22    1
    16    22    24    1
    17    24    25   ar
    18    25    26   ar
    19    26    27   ar
    20    27    28    1
    21    27    29   ar
    22    29    30   ar
    23    30    31    1
    24     7     8   ar
    25     8     9   ar
    26     9    10   ar
    27    10    11    1
    28    11    12    1
    29    12    13    1
    30    13    14    1
    31    14    15    1
    32    15    16    1
    33    10     1   ar
    34    16    11    1
    35     8     3   ar
    36    30    24   ar
    37    18    20    1
    38    18    21    1
    39    22    23    1
@<TRIPOS>MOLECULE
*****
 36 39 0 0 0
SMALL
GASTEIGER

@<TRIPOS>ATOM
      1 C         139.1175  143.4109  164.0288 C.ar    1  UNL1        0.1533
      2 C         139.4426  143.7941  165.4421 C.ar    1  UNL1        0.0573
      3 C         140.0137  142.7750  166.3830 C.ar    1  UNL1        0.0856
      4 N         140.3388  143.1582  167.7964 N.ar    1  UNL1       -0.2435
      5 C         140.9100  142.1392  168.7373 C.ar    1  UNL1        0.1045
      6 C         141.1561  140.7369  168.2648 C.ar    1  UNL1        0.0856
      7 C         140.8311  140.3538  166.8515 C.ar    1  UNL1        0.0557
      8 C         140.2599  141.3728  165.9106 C.ar    1  UNL1        0.0327
      9 C         139.9348  140.9897  164.4973 C.ar    1  UNL1        0.0203
     10 C         139.3636  142.0087  163.5564 C.ar    1  UNL1        0.0826
     11 N         139.0386  141.6255  162.1430 N.pl3   1  UNL1       -0.3004
     12 C         137.8611  140.7412  161.8576 C.3     1  UNL1        0.1231
     13 C         137.5360  140.3580  160.4443 C.3     1  UNL1        0.1636
     14 O         138.3884  140.8591  159.3163 O.3     1  UNL1       -0.3501
     15 C         139.5660  141.7434  159.6017 C.3     1  UNL1        0.1636
     16 C         139.8910  142.1266  161.0151 C.3     1  UNL1        0.1231
     17 C         141.7273  139.7179  169.2057 C.2     1  UNL1        0.2455
     18 N         141.0096  139.3893  170.4812 N.am    1  UNL1       -0.3252
     19 O         143.0163  139.0274  168.8711 O.2     1  UNL1       -0.2703
     20 H         140.1636  139.8424  170.7008 H       1  UNL1        0.1453
     21 H         141.3845  138.7204  171.0987 H       1  UNL1        0.1453
     22 N         141.0772  138.9516  166.3791 N.pl3   1  UNL1       -0.3106
     23 H         140.7578  138.1889  166.9135 H       1  UNL1        0.1523
     24 C         141.8100  138.7114  165.0924 C.ar    1  UNL1        0.0761
     25 C         143.1845  139.2786  164.8950 C.ar    1  UNL1        0.0166
     26 C         143.9173  139.0384  163.6085 C.ar    1  UNL1       -0.0028
     27 C         143.2756  138.2309  162.5193 C.ar    1  UNL1       -0.0195
     28 C         144.0084  137.9908  161.2327 C.3     1  UNL1        0.0311
     29 C         141.9011  137.6637  162.7167 C.ar    1  UNL1        0.0267
     30 C         141.1683  137.9039  164.0033 C.ar    1  UNL1        0.1531
     31 F         139.7938  137.3367  164.2007 F       1  UNL1       -0.2029
     32 O         138.5463  144.4300  163.0879 O.3     1  UNL1       -0.4715
     33 C         139.4262  145.5054  162.5229 C.3     1  UNL1        0.2374
     34 C         140.9022  145.2739  162.3897 C.3     1  UNL1        0.1894
     35 C         142.8078  144.5620  164.0058 C.3     1  UNL1        0.1743
     36 O         141.8168  145.5857  163.5371 O.3     1  UNL1       -0.3471
@<TRIPOS>BOND
     1    35    36    1
     2    36    34    1
     3    34    33    1
     4    33    32    1
     5    32     1    1
     6     1     2   ar
     7     2     3   ar
     8     3     4   ar
     9     4     5   ar
    10     5     6   ar
    11     6    17    1
    12    17    18   am
    13    17    19    2
    14     6     7   ar
    15     7    22    1
    16    22    24    1
    17    24    25   ar
    18    25    26   ar
    19    26    27   ar
    20    27    28    1
    21    27    29   ar
    22    29    30   ar
    23    30    31    1
    24     7     8   ar
    25     8     9   ar
    26     9    10   ar
    27    10    11    1
    28    11    12    1
    29    12    13    1
    30    13    14    1
    31    14    15    1
    32    15    16    1
    33    10     1   ar
    34    16    11    1
    35     8     3   ar
    36    30    24   ar
    37    18    20    1
    38    18    21    1
    39    22    23    1
@<TRIPOS>MOLECULE
*****
 36 39 0 0 0
SMALL
GASTEIGER

@<TRIPOS>ATOM
      1 C         141.2616  138.4525  163.3652 C.ar    1  UNL1        0.1533
      2 C         142.1232  138.3685  164.5900 C.ar    1  UNL1        0.0573
      3 C         142.0049  139.4100  165.6631 C.ar    1  UNL1        0.0856
      4 N         142.8667  139.3259  166.8880 N.ar    1  UNL1       -0.2435
      5 C         142.7484  140.3674  167.9611 C.ar    1  UNL1        0.1045
      6 C         141.7684  141.4928  167.8092 C.ar    1  UNL1        0.0856
      7 C         140.9067  141.5768  166.5843 C.ar    1  UNL1        0.0557
      8 C         141.0250  140.5354  165.5112 C.ar    1  UNL1        0.0327
      9 C         140.1633  140.6193  164.2863 C.ar    1  UNL1        0.0203
     10 C         140.2816  139.5779  163.2133 C.ar    1  UNL1        0.0826
     11 N         139.4199  139.6619  161.9883 N.pl3   1  UNL1       -0.3004
     12 C         138.0472  139.0571  161.9941 C.3     1  UNL1        0.1231
     13 C         137.1855  139.1410  160.7692 C.3     1  UNL1        0.1636
     14 O         137.6964  139.8299  159.5385 O.3     1  UNL1       -0.3501
     15 C         139.0690  140.4348  159.5328 C.3     1  UNL1        0.1636
     16 C         139.9308  140.3508  160.7578 C.3     1  UNL1        0.1231
     17 C         141.6501  142.5343  168.8822 C.2     1  UNL1        0.2455
     18 N         142.8610  142.9430  169.6675 N.am    1  UNL1       -0.3252
     19 O         140.3208  143.1670  169.1700 O.2     1  UNL1       -0.2703
     20 H         143.7334  142.5277  169.4786 H       1  UNL1        0.1453
     21 H         142.7834  143.6265  170.3717 H       1  UNL1        0.1453
     22 N         139.9268  142.7022  166.4324 N.pl3   1  UNL1       -0.3106
     23 H         139.2712  142.8835  167.1442 H       1  UNL1        0.1523
     24 C         139.9456  143.5514  165.1961 C.ar    1  UNL1        0.0761
     25 C         141.2439  144.0996  164.6824 C.ar    1  UNL1        0.0166
     26 C         141.2628  144.9488  163.4461 C.ar    1  UNL1       -0.0028
     27 C         139.9833  145.2499  162.7234 C.ar    1  UNL1       -0.0195
     28 C         140.0022  146.0990  161.4871 C.3     1  UNL1        0.0311
     29 C         138.6849  144.7017  163.2370 C.ar    1  UNL1        0.0267
     30 C         138.6661  143.8525  164.4734 C.ar    1  UNL1        0.1531
     31 F         137.3678  143.3044  164.9871 F       1  UNL1       -0.2029
     32 O         141.3798  137.4111  162.2921 O.3     1  UNL1       -0.4715
     33 C         142.2454  137.6641  161.0935 C.3     1  UNL1        0.2374
     34 C         143.7229  137.8591  161.2630 C.3     1  UNL1        0.1894
     35 C         143.8012  140.4417  161.5351 C.3     1  UNL1        0.1743
     36 O         144.3478  139.1820  160.9317 O.3     1  UNL1       -0.3471
@<TRIPOS>BOND
     1    35    36    1
     2    36    34    1
     3    34    33    1
     4    33    32    1
     5    32     1    1
     6     1     2   ar
     7     2     3   ar
     8     3     4   ar
     9     4     5   ar
    10     5     6   ar
    11     6    17    1
    12    17    18   am
    13    17    19    2
    14     6     7   ar
    15     7    22    1
    16    22    24    1
    17    24    25   ar
    18    25    26   ar
    19    26    27   ar
    20    27    28    1
    21    27    29   ar
    22    29    30   ar
    23    30    31    1
    24     7     8   ar
    25     8     9   ar
    26     9    10   ar
    27    10    11    1
    28    11    12    1
    29    12    13    1
    30    13    14    1
    31    14    15    1
    32    15    16    1
    33    10     1   ar
    34    16    11    1
    35     8     3   ar
    36    30    24   ar
    37    18    20    1
    38    18    21    1
    39    22    23    1
@<TRIPOS>MOLECULE
*****
 36 39 0 0 0
SMALL
GASTEIGER

@<TRIPOS>ATOM
      1 C         138.5295  140.7286  161.8187 C.ar    1  UNL1        0.1533
      2 C         138.1759  141.1662  160.4282 C.ar    1  UNL1        0.0573
      3 C         138.9004  142.3182  159.7974 C.ar    1  UNL1        0.0856
      4 N         138.5467  142.7558  158.4069 N.ar    1  UNL1       -0.2435
      5 C         139.2712  143.9078  157.7760 C.ar    1  UNL1        0.1045
      6 C         140.3495  144.6222  158.5358 C.ar    1  UNL1        0.0856
      7 C         140.7031  144.1846  159.9262 C.ar    1  UNL1        0.0557
      8 C         139.9786  143.0326  160.5570 C.ar    1  UNL1        0.0327
      9 C         140.3322  142.5950  161.9475 C.ar    1  UNL1        0.0203
     10 C         139.6077  141.4430  162.5783 C.ar    1  UNL1        0.0826
     11 N         139.9614  141.0055  163.9688 N.pl3   1  UNL1       -0.3004
     12 C         138.9079  140.9747  165.0362 C.3     1  UNL1        0.1231
     13 C         139.2615  140.5372  166.4266 C.3     1  UNL1        0.1636
     14 O         140.6687  140.1304  166.7498 O.3     1  UNL1       -0.3501
     15 C         141.7222  140.1611  165.6825 C.3     1  UNL1        0.1636
     16 C         141.3685  140.5987  164.2920 C.3     1  UNL1        0.1231
     17 C         141.0740  145.7742  157.9049 C.2     1  UNL1        0.2455
     18 N         140.3396  146.7155  156.9969 N.am    1  UNL1       -0.3252
     19 O         142.5331  145.9849  158.1822 O.2     1  UNL1       -0.2703
     20 H         139.3820  146.5772  156.8150 H       1  UNL1        0.1453
     21 H         140.8151  147.4716  156.5829 H       1  UNL1        0.1453
     22 N         141.7813  144.8990  160.6858 N.pl3   1  UNL1       -0.3106
     23 H         141.8076  145.8831  160.6950 H       1  UNL1        0.1523
     24 C         142.8196  144.1141  161.4315 C.ar    1  UNL1        0.0761
     25 C         143.5992  143.0433  160.7274 C.ar    1  UNL1        0.0166
     26 C         144.6374  142.2584  161.4730 C.ar    1  UNL1       -0.0028
     27 C         144.8960  142.5441  162.9227 C.ar    1  UNL1       -0.0195
     28 C         145.9342  141.7591  163.6683 C.3     1  UNL1        0.0311
     29 C         144.1163  143.6148  163.6268 C.ar    1  UNL1        0.0267
     30 C         143.0781  144.3998  162.8811 C.ar    1  UNL1        0.1531
     31 F         142.2984  145.4705  163.5852 F       1  UNL1       -0.2029
     32 O         137.8050  139.5766  162.4495 O.3     1  UNL1       -0.4715
     33 C         138.2134  138.1689  162.1312 C.3     1  UNL1        0.2374
     34 C         139.4371  137.9121  161.3026 C.3     1  UNL1        0.1894
     35 C         140.7767  137.1547  163.3959 C.3     1  UNL1        0.1743
     36 O         140.7484  137.6227  161.9711 O.3     1  UNL1       -0.3471
@<TRIPOS>BOND
     1    35    36    1
     2    36    34    1
     3    34    33    1
     4    33    32    1
     5    32     1    1
     6     1     2   ar
     7     2     3   ar
     8     3     4   ar
     9     4     5   ar
    10     5     6   ar
    11     6    17    1
    12    17    18   am
    13    17    19    2
    14     6     7   ar
    15     7    22    1
    16    22    24    1
    17    24    25   ar
    18    25    26   ar
    19    26    27   ar
    20    27    28    1
    21    27    29   ar
    22    29    30   ar
    23    30    31    1
    24     7     8   ar
    25     8     9   ar
    26     9    10   ar
    27    10    11    1
    28    11    12    1
    29    12    13    1
    30    13    14    1
    31    14    15    1
    32    15    16    1
    33    10     1   ar
    34    16    11    1
    35     8     3   ar
    36    30    24   ar
    37    18    20    1
    38    18    21    1
    39    22    23    1
@<TRIPOS>MOLECULE
*****
 36 39 0 0 0
SMALL
GASTEIGER

@<TRIPOS>ATOM
      1 C         141.9331  143.5670  161.0137 C.ar    1  UNL1        0.1533
      2 C         141.4543  143.3886  159.6034 C.ar    1  UNL1        0.0573
      3 C         141.2767  142.0096  159.0404 C.ar    1  UNL1        0.0856
      4 N         140.7978  141.8312  157.6301 N.ar    1  UNL1       -0.2435
      5 C         140.6203  140.4523  157.0671 C.ar    1  UNL1        0.1045
      6 C         140.9216  139.2517  157.9145 C.ar    1  UNL1        0.0856
      7 C         141.4005  139.4301  159.3247 C.ar    1  UNL1        0.0557
      8 C         141.5780  140.8091  159.8877 C.ar    1  UNL1        0.0327
      9 C         142.0569  140.9875  161.2979 C.ar    1  UNL1        0.0203
     10 C         142.2344  142.3664  161.8609 C.ar    1  UNL1        0.0826
     11 N         142.7133  142.5448  163.2712 N.pl3   1  UNL1       -0.3004
     12 C         144.1402  142.9237  163.5365 C.3     1  UNL1        0.1231
     13 C         144.6191  143.1021  164.9467 C.3     1  UNL1        0.1636
     14 O         143.6711  142.9016  166.0918 O.3     1  UNL1       -0.3501
     15 C         142.2442  142.5227  165.8265 C.3     1  UNL1        0.1636
     16 C         141.7653  142.3443  164.4162 C.3     1  UNL1        0.1231
     17 C         140.7441  137.8727  157.3515 C.2     1  UNL1        0.2455
     18 N         139.3813  137.4007  156.9391 N.am    1  UNL1       -0.3252
     19 O         141.9293  136.9658  157.2008 O.2     1  UNL1       -0.2703
     20 H         138.6034  137.9960  157.0380 H       1  UNL1        0.1453
     21 H         139.2648  136.4957  156.5696 H       1  UNL1        0.1453
     22 N         141.7018  138.2296  160.1719 N.pl3   1  UNL1       -0.3106
     23 H         142.3832  137.5809  159.8819 H       1  UNL1        0.1523
     24 C         140.9648  138.0173  161.4611 C.ar    1  UNL1        0.0761
     25 C         139.4654  138.0521  161.4823 C.ar    1  UNL1        0.0166
     26 C         138.7284  137.8398  162.7714 C.ar    1  UNL1       -0.0028
     27 C         139.4909  137.5928  164.0394 C.ar    1  UNL1       -0.0195
     28 C         138.7539  137.3806  165.3285 C.3     1  UNL1        0.0311
     29 C         140.9903  137.5581  164.0182 C.ar    1  UNL1        0.0267
     30 C         141.7273  137.7703  162.7290 C.ar    1  UNL1        0.1531
     31 F         143.2267  137.7356  162.7078 F       1  UNL1       -0.2029
     32 O         142.1107  144.9459  161.5767 O.3     1  UNL1       -0.4715
     33 C         141.0600  145.5310  162.4731 C.3     1  UNL1        0.2374
     34 C         139.8042  146.1016  161.8838 C.3     1  UNL1        0.1894
     35 C         138.2784  144.4278  163.1567 C.3     1  UNL1        0.1743
     36 O         138.5133  145.3456  161.9937 O.3     1  UNL1       -0.3471
@<TRIPOS>BOND
     1    35    36    1
     2    36    34    1
     3    34    33    1
     4    33    32    1
     5    32     1    1
     6     1     2   ar
     7     2     3   ar
     8     3     4   ar
     9     4     5   ar
    10     5     6   ar
    11     6    17    1
    12    17    18   am
    13    17    19    2
    14     6     7   ar
    15     7    22    1
    16    22    24    1
    17    24    25   ar
    18    25    26   ar
    19    26    27   ar
    20    27    28    1
    21    27    29   ar
    22    29    30   ar
    23    30    31    1
    24     7     8   ar
    25     8     9   ar
    26     9    10   ar
    27    10    11    1
    28    11    12    1
    29    12    13    1
    30    13    14    1
    31    14    15    1
    32    15    16    1
    33    10     1   ar
    34    16    11    1
    35     8     3   ar
    36    30    24   ar
    37    18    20    1
    38    18    21    1
    39    22    23    1
