@<TRIPOS>MOLECULE
*****
 32 36 0 0 0
SMALL
GASTEIGER

@<TRIPOS>ATOM
      1 N         141.1314  139.9788  165.6634 N.ar    1  UNL1       -0.2570
      2 C         142.2961  139.0338  165.6469 C.ar    1  UNL1        0.1850
      3 N         142.7008  138.3644  164.3671 N.ar    1  UNL1       -0.2249
      4 C         141.9407  138.6400  163.1036 C.ar    1  UNL1        0.0877
      5 C         142.3453  137.9706  161.8237 C.ar    1  UNL1        0.0206
      6 C         141.5853  138.2463  160.5603 C.ar    1  UNL1        0.0161
      7 C         140.4206  139.1913  160.5767 C.ar    1  UNL1        0.0482
      8 C         140.0159  139.8607  161.8566 C.ar    1  UNL1        0.0208
      9 C         140.7760  139.5851  163.1200 C.ar    1  UNL1        0.0754
     10 C         140.3713  140.2545  164.4000 C.ar    1  UNL1        0.2673
     11 O         139.2066  141.1996  164.4164 O.2     1  UNL1       -0.2665
     12 C         141.8373  142.8554  166.1401 C.3     1  UNL1        0.0326
     13 C         141.0797  142.0865  167.1817 C.ar    1  UNL1       -0.0056
     14 C         140.6750  142.7558  168.4616 C.ar    1  UNL1       -0.0027
     15 C         139.9174  141.9869  169.5031 C.ar    1  UNL1        0.0043
     16 C         139.5645  140.5487  169.2648 C.ar    1  UNL1        0.0548
     17 C         139.9691  139.8794  167.9849 C.ar    1  UNL1        0.0218
     18 C         140.7267  140.6482  166.9433 C.ar    1  UNL1        0.0644
     19 C         138.8069  139.7798  170.3063 C.2     1  UNL1        0.2458
     20 O         139.4926  139.3532  171.5704 O.2     1  UNL1       -0.2701
     21 N         137.3635  139.4375  170.0839 N.am    1  UNL1       -0.3025
     22 H         136.9134  139.7174  169.2543 H       1  UNL1        0.1497
     23 C         136.6059  138.6686  171.1254 C.3     1  UNL1        0.0720
     24 C         136.4847  137.4769  172.0283 C.3     1  UNL1        0.0213
     25 C         135.4150  138.5285  172.0265 C.3     1  UNL1        0.0213
     26 N         139.6605  139.4670  159.3132 N.pl3   1  UNL1       -0.3046
     27 C         138.5240  140.4458  159.3200 C.3     1  UNL1        0.1081
     28 C         137.7639  140.7215  158.0565 C.3     1  UNL1        0.0938
     29 N         138.1404  140.0182  156.7862 N.3     1  UNL1       -0.2686
     30 C         137.3804  140.2938  155.5228 C.3     1  UNL1        0.0897
     31 C         139.2770  139.0393  156.7794 C.3     1  UNL1        0.0938
     32 C         140.0370  138.7637  158.0429 C.3     1  UNL1        0.1081
@<TRIPOS>BOND
     1    12    13    1
     2    13    14   ar
     3    14    15   ar
     4    15    16   ar
     5    16    19    1
     6    19    20    2
     7    19    21   am
     8    21    23    1
     9    23    24    1
    10    24    25    1
    11    16    17   ar
    12    17    18   ar
    13    18     1    1
    14     1     2   ar
    15     2     3   ar
    16     3     4   ar
    17     4     5   ar
    18     5     6   ar
    19     6     7   ar
    20     7    26    1
    21    26    27    1
    22    27    28    1
    23    28    29    1
    24    29    30    1
    25    29    31    1
    26    31    32    1
    27     7     8   ar
    28     8     9   ar
    29     9    10   ar
    30    10    11    2
    31    18    13   ar
    32    10     1   ar
    33    25    23    1
    34     9     4   ar
    35    32    26    1
    36    21    22    1
@<TRIPOS>MOLECULE
*****
 32 36 0 0 0
SMALL
GASTEIGER

@<TRIPOS>ATOM
      1 N         139.3528  141.2409  162.2800 N.ar    1  UNL1       -0.2570
      2 C         138.2067  142.0882  161.8125 C.ar    1  UNL1        0.1850
      3 N         138.3253  142.8746  160.5407 N.ar    1  UNL1       -0.2249
      4 C         139.5901  142.8138  159.7364 C.ar    1  UNL1        0.0877
      5 C         139.7087  143.6002  158.4647 C.ar    1  UNL1        0.0206
      6 C         140.9734  143.5394  157.6605 C.ar    1  UNL1        0.0161
      7 C         142.1195  142.6921  158.1280 C.ar    1  UNL1        0.0482
      8 C         142.0009  141.9057  159.3998 C.ar    1  UNL1        0.0208
      9 C         140.7362  141.9665  160.2040 C.ar    1  UNL1        0.0754
     10 C         140.6175  141.1801  161.4758 C.ar    1  UNL1        0.2673
     11 O         141.7636  140.3328  161.9434 O.2     1  UNL1       -0.2665
     12 C         138.3933  138.3995  162.2027 C.3     1  UNL1        0.0326
     13 C         138.7544  139.0338  163.5132 C.ar    1  UNL1       -0.0056
     14 C         138.6358  138.2475  164.7850 C.ar    1  UNL1       -0.0027
     15 C         138.9969  138.8817  166.0954 C.ar    1  UNL1        0.0043
     16 C         139.4766  140.3024  166.1341 C.ar    1  UNL1        0.0548
     17 C         139.5953  141.0888  164.8623 C.ar    1  UNL1        0.0218
     18 C         139.2342  140.4545  163.5519 C.ar    1  UNL1        0.0644
     19 C         139.8377  140.9367  167.4446 C.2     1  UNL1        0.2458
     20 O         139.6236  140.1860  168.7254 O.2     1  UNL1       -0.2701
     21 N         140.4130  142.3216  167.4742 N.am    1  UNL1       -0.3025
     22 H         140.5536  142.8144  166.6335 H       1  UNL1        0.1497
     23 C         140.7741  142.9559  168.7846 C.3     1  UNL1        0.0720
     24 C         141.7269  143.1146  169.9321 C.3     1  UNL1        0.0213
     25 C         140.4466  143.8958  169.9068 C.3     1  UNL1        0.0213
     26 N         143.3842  142.6313  157.3237 N.pl3   1  UNL1       -0.3046
     27 C         144.7004  142.4174  158.0107 C.3     1  UNL1        0.1081
     28 C         145.9651  142.3566  157.2065 C.3     1  UNL1        0.0938
     29 N         145.9136  142.5096  155.7152 N.3     1  UNL1       -0.2686
     30 C         147.1783  142.4488  154.9109 C.3     1  UNL1        0.0897
     31 C         144.5974  142.7236  155.0282 C.3     1  UNL1        0.0938
     32 C         143.3328  142.7844  155.8325 C.3     1  UNL1        0.1081
@<TRIPOS>BOND
     1    12    13    1
     2    13    14   ar
     3    14    15   ar
     4    15    16   ar
     5    16    19    1
     6    19    20    2
     7    19    21   am
     8    21    23    1
     9    23    24    1
    10    24    25    1
    11    16    17   ar
    12    17    18   ar
    13    18     1    1
    14     1     2   ar
    15     2     3   ar
    16     3     4   ar
    17     4     5   ar
    18     5     6   ar
    19     6     7   ar
    20     7    26    1
    21    26    27    1
    22    27    28    1
    23    28    29    1
    24    29    30    1
    25    29    31    1
    26    31    32    1
    27     7     8   ar
    28     8     9   ar
    29     9    10   ar
    30    10    11    2
    31    18    13   ar
    32    10     1   ar
    33    25    23    1
    34     9     4   ar
    35    32    26    1
    36    21    22    1
@<TRIPOS>MOLECULE
*****
 32 36 0 0 0
SMALL
GASTEIGER

@<TRIPOS>ATOM
      1 N         141.5179  140.2594  162.7077 N.ar    1  UNL1       -0.2570
      2 C         142.9335  139.7814  162.5750 C.ar    1  UNL1        0.1850
      3 N         143.8095  140.3248  161.4854 N.ar    1  UNL1       -0.2249
      4 C         143.2700  141.3462  160.5285 C.ar    1  UNL1        0.0877
      5 C         144.1460  141.8896  159.4389 C.ar    1  UNL1        0.0206
      6 C         143.6064  142.9110  158.4820 C.ar    1  UNL1        0.0161
      7 C         142.1908  143.3889  158.6148 C.ar    1  UNL1        0.0482
      8 C         141.3148  142.8455  159.7043 C.ar    1  UNL1        0.0208
      9 C         141.8544  141.8242  160.6612 C.ar    1  UNL1        0.0754
     10 C         140.9783  141.2807  161.7509 C.ar    1  UNL1        0.2673
     11 O         139.5627  141.7587  161.8836 O.2     1  UNL1       -0.2665
     12 C         139.8071  137.8489  162.1951 C.3     1  UNL1        0.0326
     13 C         139.7865  138.5107  163.5411 C.ar    1  UNL1       -0.0056
     14 C         138.9105  137.9673  164.6307 C.ar    1  UNL1       -0.0027
     15 C         138.8899  138.6291  165.9766 C.ar    1  UNL1        0.0043
     16 C         139.7453  139.8343  166.2330 C.ar    1  UNL1        0.0548
     17 C         140.6213  140.3777  165.1433 C.ar    1  UNL1        0.0218
     18 C         140.6419  139.7159  163.7974 C.ar    1  UNL1        0.0644
     19 C         139.7247  140.4961  167.5789 C.2     1  UNL1        0.2458
     20 O         139.0674  139.8123  168.7409 O.2     1  UNL1       -0.2701
     21 N         140.3614  141.8417  167.7629 N.am    1  UNL1       -0.3025
     22 H         140.7928  142.2905  167.0002 H       1  UNL1        0.1497
     23 C         140.3408  142.5035  169.1088 C.3     1  UNL1        0.0720
     24 C         140.2328  142.4079  170.6018 C.3     1  UNL1        0.0213
     25 C         140.4132  143.7453  169.9470 C.3     1  UNL1        0.0213
     26 N         141.6513  144.4104  157.6578 N.pl3   1  UNL1       -0.3046
     27 C         142.1933  144.4899  156.2615 C.3     1  UNL1        0.1081
     28 C         141.6537  145.5113  155.3045 C.3     1  UNL1        0.0938
     29 N         140.5721  146.4532  155.7440 N.3     1  UNL1       -0.2686
     30 C         140.0326  147.4745  154.7872 C.3     1  UNL1        0.0897
     31 C         140.0301  146.3736  157.1405 C.3     1  UNL1        0.0938
     32 C         140.5697  145.3522  158.0973 C.3     1  UNL1        0.1081
@<TRIPOS>BOND
     1    12    13    1
     2    13    14   ar
     3    14    15   ar
     4    15    16   ar
     5    16    19    1
     6    19    20    2
     7    19    21   am
     8    21    23    1
     9    23    24    1
    10    24    25    1
    11    16    17   ar
    12    17    18   ar
    13    18     1    1
    14     1     2   ar
    15     2     3   ar
    16     3     4   ar
    17     4     5   ar
    18     5     6   ar
    19     6     7   ar
    20     7    26    1
    21    26    27    1
    22    27    28    1
    23    28    29    1
    24    29    30    1
    25    29    31    1
    26    31    32    1
    27     7     8   ar
    28     8     9   ar
    29     9    10   ar
    30    10    11    2
    31    18    13   ar
    32    10     1   ar
    33    25    23    1
    34     9     4   ar
    35    32    26    1
    36    21    22    1
@<TRIPOS>MOLECULE
*****
 32 36 0 0 0
SMALL
GASTEIGER

@<TRIPOS>ATOM
      1 N         140.1977  140.5211  167.5006 N.ar    1  UNL1       -0.2570
      2 C         139.0545  139.5533  167.4212 C.ar    1  UNL1        0.1850
      3 N         138.2150  139.4843  166.1801 N.ar    1  UNL1       -0.2249
      4 C         138.5188  140.3832  165.0182 C.ar    1  UNL1        0.0877
      5 C         137.6793  140.3142  163.7771 C.ar    1  UNL1        0.0206
      6 C         137.9831  141.2131  162.6153 C.ar    1  UNL1        0.0161
      7 C         139.1264  142.1809  162.6947 C.ar    1  UNL1        0.0482
      8 C         139.9658  142.2498  163.9358 C.ar    1  UNL1        0.0208
      9 C         139.6620  141.3510  165.0976 C.ar    1  UNL1        0.0754
     10 C         140.5015  141.4199  166.3388 C.ar    1  UNL1        0.2673
     11 O         141.6448  142.3877  166.4182 O.2     1  UNL1       -0.2665
     12 C         140.0496  142.9321  169.2797 C.3     1  UNL1        0.0326
     13 C         140.9632  141.7955  169.6313 C.ar    1  UNL1       -0.0056
     14 C         141.8026  141.8644  170.8725 C.ar    1  UNL1       -0.0027
     15 C         142.7161  140.7278  171.2241 C.ar    1  UNL1        0.0043
     16 C         142.7902  139.5223  170.3346 C.ar    1  UNL1        0.0548
     17 C         141.9507  139.4535  169.0935 C.ar    1  UNL1        0.0218
     18 C         141.0372  140.5900  168.7418 C.ar    1  UNL1        0.0644
     19 C         143.7037  138.3857  170.6862 C.2     1  UNL1        0.2458
     20 O         143.6794  137.1250  169.8739 O.2     1  UNL1       -0.2701
     21 N         144.6416  138.5099  171.8502 N.am    1  UNL1       -0.3025
     22 H         144.6576  139.3373  172.3834 H       1  UNL1        0.1497
     23 C         145.5551  137.3733  172.2019 C.3     1  UNL1        0.0720
     24 C         146.0129  136.3281  173.1755 C.3     1  UNL1        0.0213
     25 C         146.6796  136.4499  171.8373 C.3     1  UNL1        0.0213
     26 N         139.4301  143.0797  161.5328 N.pl3   1  UNL1       -0.3046
     27 C         139.2028  142.5964  160.1312 C.3     1  UNL1        0.1081
     28 C         139.5066  143.4953  158.9693 C.3     1  UNL1        0.0938
     29 N         140.0377  144.8775  159.2092 N.3     1  UNL1       -0.2686
     30 C         140.3415  145.7763  158.0474 C.3     1  UNL1        0.0897
     31 C         140.2650  145.3607  160.6109 C.3     1  UNL1        0.0938
     32 C         139.9613  144.4619  161.7727 C.3     1  UNL1        0.1081
@<TRIPOS>BOND
     1    12    13    1
     2    13    14   ar
     3    14    15   ar
     4    15    16   ar
     5    16    19    1
     6    19    20    2
     7    19    21   am
     8    21    23    1
     9    23    24    1
    10    24    25    1
    11    16    17   ar
    12    17    18   ar
    13    18     1    1
    14     1     2   ar
    15     2     3   ar
    16     3     4   ar
    17     4     5   ar
    18     5     6   ar
    19     6     7   ar
    20     7    26    1
    21    26    27    1
    22    27    28    1
    23    28    29    1
    24    29    30    1
    25    29    31    1
    26    31    32    1
    27     7     8   ar
    28     8     9   ar
    29     9    10   ar
    30    10    11    2
    31    18    13   ar
    32    10     1   ar
    33    25    23    1
    34     9     4   ar
    35    32    26    1
    36    21    22    1
@<TRIPOS>MOLECULE
*****
 32 36 0 0 0
SMALL
GASTEIGER

@<TRIPOS>ATOM
      1 N         141.0795  138.3644  157.8249 N.ar    1  UNL1       -0.2570
      2 C         139.8151  138.8323  157.1672 C.ar    1  UNL1        0.1850
      3 N         138.7030  139.3997  157.9984 N.ar    1  UNL1       -0.2249
      4 C         138.8551  139.4993  159.4874 C.ar    1  UNL1        0.0877
      5 C         137.7429  140.0668  160.3186 C.ar    1  UNL1        0.0206
      6 C         137.8950  140.1664  161.8075 C.ar    1  UNL1        0.0161
      7 C         139.1593  139.6985  162.4652 C.ar    1  UNL1        0.0482
      8 C         140.2715  139.1310  161.6340 C.ar    1  UNL1        0.0208
      9 C         140.1194  139.0314  160.1451 C.ar    1  UNL1        0.0754
     10 C         141.2316  138.4639  159.3138 C.ar    1  UNL1        0.2673
     11 O         142.4959  137.9961  159.9715 O.2     1  UNL1       -0.2665
     12 C         142.9965  140.2017  156.4287 C.3     1  UNL1        0.0326
     13 C         143.1502  138.7155  156.2955 C.ar    1  UNL1       -0.0056
     14 C         144.2623  138.1480  155.4643 C.ar    1  UNL1       -0.0027
     15 C         144.4160  136.6619  155.3311 C.ar    1  UNL1        0.0043
     16 C         143.4575  135.7432  156.0291 C.ar    1  UNL1        0.0548
     17 C         142.3453  136.3107  156.8603 C.ar    1  UNL1        0.0218
     18 C         142.1917  137.7969  156.9936 C.ar    1  UNL1        0.0644
     19 C         143.6111  134.2571  155.8959 C.2     1  UNL1        0.2458
     20 O         142.8988  133.5249  154.7976 O.2     1  UNL1       -0.2701
     21 N         144.4772  133.5031  156.8610 N.am    1  UNL1       -0.3025
     22 H         144.9447  133.9837  157.5819 H       1  UNL1        0.1497
     23 C         144.6308  132.0170  156.7278 C.3     1  UNL1        0.0720
     24 C         144.9275  130.8121  155.8851 C.3     1  UNL1        0.0213
     25 C         144.6003  130.6479  157.3398 C.3     1  UNL1        0.0213
     26 N         139.3114  139.7981  163.9542 N.pl3   1  UNL1       -0.3046
     27 C         140.2896  140.7697  164.5448 C.3     1  UNL1        0.1081
     28 C         140.4417  140.8693  166.0338 C.3     1  UNL1        0.0938
     29 N         139.6156  139.9972  166.9321 N.3     1  UNL1       -0.2686
     30 C         139.7677  140.0967  168.4210 C.3     1  UNL1        0.0897
     31 C         138.6373  139.0255  166.3414 C.3     1  UNL1        0.0938
     32 C         138.4853  138.9259  164.8525 C.3     1  UNL1        0.1081
@<TRIPOS>BOND
     1    12    13    1
     2    13    14   ar
     3    14    15   ar
     4    15    16   ar
     5    16    19    1
     6    19    20    2
     7    19    21   am
     8    21    23    1
     9    23    24    1
    10    24    25    1
    11    16    17   ar
    12    17    18   ar
    13    18     1    1
    14     1     2   ar
    15     2     3   ar
    16     3     4   ar
    17     4     5   ar
    18     5     6   ar
    19     6     7   ar
    20     7    26    1
    21    26    27    1
    22    27    28    1
    23    28    29    1
    24    29    30    1
    25    29    31    1
    26    31    32    1
    27     7     8   ar
    28     8     9   ar
    29     9    10   ar
    30    10    11    2
    31    18    13   ar
    32    10     1   ar
    33    25    23    1
    34     9     4   ar
    35    32    26    1
    36    21    22    1
@<TRIPOS>MOLECULE
*****
 32 36 0 0 0
SMALL
GASTEIGER

@<TRIPOS>ATOM
      1 N         141.6739  141.8597  165.7706 N.ar    1  UNL1       -0.2570
      2 C         140.3574  142.5560  165.5915 C.ar    1  UNL1        0.1850
      3 N         139.8896  142.9337  164.2173 N.ar    1  UNL1       -0.2249
      4 C         140.7382  142.6150  163.0221 C.ar    1  UNL1        0.0877
      5 C         140.2704  142.9926  161.6479 C.ar    1  UNL1        0.0206
      6 C         141.1190  142.6740  160.4528 C.ar    1  UNL1        0.0161
      7 C         142.4355  141.9777  160.6320 C.ar    1  UNL1        0.0482
      8 C         142.9033  141.6000  162.0062 C.ar    1  UNL1        0.0208
      9 C         142.0547  141.9187  163.2012 C.ar    1  UNL1        0.0754
     10 C         142.5225  141.5411  164.5755 C.ar    1  UNL1        0.2673
     11 O         143.8390  140.8448  164.7546 O.2     1  UNL1       -0.2665
     12 C         141.2418  139.0710  166.7887 C.3     1  UNL1        0.0326
     13 C         141.9257  140.0878  167.6539 C.ar    1  UNL1       -0.0056
     14 C         142.3935  139.7102  169.0281 C.ar    1  UNL1       -0.0027
     15 C         143.0774  140.7269  169.8933 C.ar    1  UNL1        0.0043
     16 C         143.2934  142.1213  169.3843 C.ar    1  UNL1        0.0548
     17 C         142.8256  142.4988  168.0101 C.ar    1  UNL1        0.0218
     18 C         142.1417  141.4821  167.1449 C.ar    1  UNL1        0.0644
     19 C         143.9773  143.1380  170.2495 C.2     1  UNL1        0.2458
     20 O         143.1771  143.9612  171.2149 O.2     1  UNL1       -0.2701
     21 N         145.4613  143.3315  170.1493 N.am    1  UNL1       -0.3025
     22 H         145.9865  142.7913  169.5157 H       1  UNL1        0.1497
     23 C         146.1452  144.3483  171.0145 C.3     1  UNL1        0.0720
     24 C         146.1056  145.6321  171.7893 C.3     1  UNL1        0.0213
     25 C         147.3693  144.8255  171.7383 C.3     1  UNL1        0.0213
     26 N         143.2841  141.6590  159.4368 N.pl3   1  UNL1       -0.3046
     27 C         144.4142  142.5686  159.0554 C.3     1  UNL1        0.1081
     28 C         145.2629  142.2499  157.8602 C.3     1  UNL1        0.0938
     29 N         144.9813  141.0217  157.0465 N.3     1  UNL1       -0.2686
     30 C         145.8299  140.7030  155.8514 C.3     1  UNL1        0.0897
     31 C         143.8511  140.1121  157.4280 C.3     1  UNL1        0.0938
     32 C         143.0026  140.4308  158.6231 C.3     1  UNL1        0.1081
@<TRIPOS>BOND
     1    12    13    1
     2    13    14   ar
     3    14    15   ar
     4    15    16   ar
     5    16    19    1
     6    19    20    2
     7    19    21   am
     8    21    23    1
     9    23    24    1
    10    24    25    1
    11    16    17   ar
    12    17    18   ar
    13    18     1    1
    14     1     2   ar
    15     2     3   ar
    16     3     4   ar
    17     4     5   ar
    18     5     6   ar
    19     6     7   ar
    20     7    26    1
    21    26    27    1
    22    27    28    1
    23    28    29    1
    24    29    30    1
    25    29    31    1
    26    31    32    1
    27     7     8   ar
    28     8     9   ar
    29     9    10   ar
    30    10    11    2
    31    18    13   ar
    32    10     1   ar
    33    25    23    1
    34     9     4   ar
    35    32    26    1
    36    21    22    1
@<TRIPOS>MOLECULE
*****
 32 36 0 0 0
SMALL
GASTEIGER

@<TRIPOS>ATOM
      1 N         143.5306  137.5611  156.2463 N.ar    1  UNL1       -0.2570
      2 C         144.4984  138.1014  155.2357 C.ar    1  UNL1        0.1850
      3 N         145.0795  139.4729  155.4122 N.ar    1  UNL1       -0.2249
      4 C         144.6927  140.3042  156.5995 C.ar    1  UNL1        0.0877
      5 C         145.2738  141.6758  156.7760 C.ar    1  UNL1        0.0206
      6 C         144.8870  142.5070  157.9632 C.ar    1  UNL1        0.0161
      7 C         143.9192  141.9667  158.9738 C.ar    1  UNL1        0.0482
      8 C         143.3381  140.5951  158.7973 C.ar    1  UNL1        0.0208
      9 C         143.7249  139.7639  157.6101 C.ar    1  UNL1        0.0754
     10 C         143.1438  138.3923  157.4335 C.ar    1  UNL1        0.2673
     11 O         142.1760  137.8520  158.4441 O.2     1  UNL1       -0.2665
     12 C         141.0730  137.1776  154.5689 C.3     1  UNL1        0.0326
     13 C         141.7208  135.9978  155.2310 C.ar    1  UNL1       -0.0056
     14 C         141.1398  134.6262  155.0544 C.ar    1  UNL1       -0.0027
     15 C         141.7875  133.4464  155.7165 C.ar    1  UNL1        0.0043
     16 C         143.0163  133.6380  156.5552 C.ar    1  UNL1        0.0548
     17 C         143.5973  135.0096  156.7318 C.ar    1  UNL1        0.0218
     18 C         142.9495  136.1895  156.0697 C.ar    1  UNL1        0.0644
     19 C         143.6640  132.4582  157.2173 C.2     1  UNL1        0.2458
     20 O         144.9987  132.6118  157.8844 O.2     1  UNL1       -0.2701
     21 N         142.9771  131.1248  157.2123 N.am    1  UNL1       -0.3025
     22 H         142.1011  131.0240  156.7745 H       1  UNL1        0.1497
     23 C         143.6248  129.9449  157.8744 C.3     1  UNL1        0.0720
     24 C         144.6675  128.8666  157.8757 C.3     1  UNL1        0.0213
     25 C         143.7040  128.9797  159.0198 C.3     1  UNL1        0.0213
     26 N         143.5324  142.7979  160.1610 N.pl3   1  UNL1       -0.3046
     27 C         142.2314  143.5444  160.1621 C.3     1  UNL1        0.1081
     28 C         141.8446  144.3757  161.3494 C.3     1  UNL1        0.0938
     29 N         142.7589  144.4605  162.5355 N.3     1  UNL1       -0.2686
     30 C         142.3722  145.2917  163.7226 C.3     1  UNL1        0.0897
     31 C         144.0600  143.7139  162.5343 C.3     1  UNL1        0.0938
     32 C         144.4467  142.8827  161.3471 C.3     1  UNL1        0.1081
@<TRIPOS>BOND
     1    12    13    1
     2    13    14   ar
     3    14    15   ar
     4    15    16   ar
     5    16    19    1
     6    19    20    2
     7    19    21   am
     8    21    23    1
     9    23    24    1
    10    24    25    1
    11    16    17   ar
    12    17    18   ar
    13    18     1    1
    14     1     2   ar
    15     2     3   ar
    16     3     4   ar
    17     4     5   ar
    18     5     6   ar
    19     6     7   ar
    20     7    26    1
    21    26    27    1
    22    27    28    1
    23    28    29    1
    24    29    30    1
    25    29    31    1
    26    31    32    1
    27     7     8   ar
    28     8     9   ar
    29     9    10   ar
    30    10    11    2
    31    18    13   ar
    32    10     1   ar
    33    25    23    1
    34     9     4   ar
    35    32    26    1
    36    21    22    1
@<TRIPOS>MOLECULE
*****
 32 36 0 0 0
SMALL
GASTEIGER

@<TRIPOS>ATOM
      1 N         140.1463  139.7371  162.7022 N.ar    1  UNL1       -0.2570
      2 C         139.1249  138.7222  162.2817 C.ar    1  UNL1        0.1850
      3 N         138.3559  138.9152  161.0084 N.ar    1  UNL1       -0.2249
      4 C         138.6083  140.1231  160.1555 C.ar    1  UNL1        0.0877
      5 C         137.8392  140.3162  158.8822 C.ar    1  UNL1        0.0206
      6 C         138.0917  141.5240  158.0294 C.ar    1  UNL1        0.0161
      7 C         139.1131  142.5388  158.4499 C.ar    1  UNL1        0.0482
      8 C         139.8821  142.3458  159.7231 C.ar    1  UNL1        0.0208
      9 C         139.6297  141.1380  160.5760 C.ar    1  UNL1        0.0754
     10 C         140.3987  140.9449  161.8493 C.ar    1  UNL1        0.2673
     11 O         141.4201  141.9597  162.2698 O.2     1  UNL1       -0.2665
     12 C         142.5818  137.9857  162.7328 C.3     1  UNL1        0.0326
     13 C         142.1331  138.6683  163.9908 C.ar    1  UNL1       -0.0056
     14 C         142.9020  138.4753  165.2642 C.ar    1  UNL1       -0.0027
     15 C         142.4532  139.1579  166.5222 C.ar    1  UNL1        0.0043
     16 C         141.2355  140.0336  166.5069 C.ar    1  UNL1        0.0548
     17 C         140.4665  140.2266  165.2335 C.ar    1  UNL1        0.0218
     18 C         140.9153  139.5440  163.9755 C.ar    1  UNL1        0.0644
     19 C         140.7867  140.7163  167.7649 C.2     1  UNL1        0.2458
     20 O         140.1632  139.9170  168.8704 O.2     1  UNL1       -0.2701
     21 N         140.9615  142.1982  167.9173 N.am    1  UNL1       -0.3025
     22 H         141.3707  142.7228  167.1917 H       1  UNL1        0.1497
     23 C         140.5127  142.8808  169.1753 C.3     1  UNL1        0.0720
     24 C         140.3476  144.1317  169.9866 C.3     1  UNL1        0.0213
     25 C         139.9005  142.8124  170.5430 C.3     1  UNL1        0.0213
     26 N         139.3655  143.7467  157.5970 N.pl3   1  UNL1       -0.3046
     27 C         140.2280  144.8610  158.1112 C.3     1  UNL1        0.1081
     28 C         140.4804  146.0689  157.2583 C.3     1  UNL1        0.0938
     29 N         139.8703  146.1624  155.8912 N.3     1  UNL1       -0.2686
     30 C         140.1226  147.3702  155.0383 C.3     1  UNL1        0.0897
     31 C         139.0077  145.0481  155.3770 C.3     1  UNL1        0.0938
     32 C         138.7553  143.8403  156.2299 C.3     1  UNL1        0.1081
@<TRIPOS>BOND
     1    12    13    1
     2    13    14   ar
     3    14    15   ar
     4    15    16   ar
     5    16    19    1
     6    19    20    2
     7    19    21   am
     8    21    23    1
     9    23    24    1
    10    24    25    1
    11    16    17   ar
    12    17    18   ar
    13    18     1    1
    14     1     2   ar
    15     2     3   ar
    16     3     4   ar
    17     4     5   ar
    18     5     6   ar
    19     6     7   ar
    20     7    26    1
    21    26    27    1
    22    27    28    1
    23    28    29    1
    24    29    30    1
    25    29    31    1
    26    31    32    1
    27     7     8   ar
    28     8     9   ar
    29     9    10   ar
    30    10    11    2
    31    18    13   ar
    32    10     1   ar
    33    25    23    1
    34     9     4   ar
    35    32    26    1
    36    21    22    1
@<TRIPOS>MOLECULE
*****
 32 36 0 0 0
SMALL
GASTEIGER

@<TRIPOS>ATOM
      1 N         142.1417  140.3260  165.5104 N.ar    1  UNL1       -0.2570
      2 C         143.0862  139.1618  165.4618 C.ar    1  UNL1        0.1850
      3 N         143.7187  138.7629  164.1615 N.ar    1  UNL1       -0.2249
      4 C         143.4067  139.5283  162.9097 C.ar    1  UNL1        0.0877
      5 C         144.0393  139.1294  161.6095 C.ar    1  UNL1        0.0206
      6 C         143.7273  139.8949  160.3578 C.ar    1  UNL1        0.0161
      7 C         142.7828  141.0592  160.4064 C.ar    1  UNL1        0.0482
      8 C         142.1503  141.4580  161.7066 C.ar    1  UNL1        0.0208
      9 C         142.4622  140.6926  162.9583 C.ar    1  UNL1        0.0754
     10 C         141.8297  141.0915  164.2587 C.ar    1  UNL1        0.2673
     11 O         140.8852  142.2558  164.3073 O.2     1  UNL1       -0.2665
     12 C         143.2748  142.6100  167.0915 C.3     1  UNL1        0.0326
     13 C         142.0757  141.8668  167.6013 C.ar    1  UNL1       -0.0056
     14 C         141.4432  142.2656  168.9016 C.ar    1  UNL1       -0.0027
     15 C         140.2441  141.5225  169.4113 C.ar    1  UNL1        0.0043
     16 C         139.6775  140.3806  168.6208 C.ar    1  UNL1        0.0548
     17 C         140.3100  139.9818  167.3206 C.ar    1  UNL1        0.0218
     18 C         141.5091  140.7249  166.8108 C.ar    1  UNL1        0.0644
     19 C         138.4784  139.6375  169.1306 C.2     1  UNL1        0.2458
     20 O         137.6762  138.7786  168.1986 O.2     1  UNL1       -0.2701
     21 N         138.0815  139.7532  170.5725 N.am    1  UNL1       -0.3025
     22 H         138.6080  140.3169  171.1843 H       1  UNL1        0.1497
     23 C         136.8824  139.0101  171.0823 C.3     1  UNL1        0.0720
     24 C         135.4506  139.0051  171.5295 C.3     1  UNL1        0.0213
     25 C         136.2372  137.7279  171.5181 C.3     1  UNL1        0.0213
     26 N         142.4708  141.8246  159.1546 N.pl3   1  UNL1       -0.3046
     27 C         142.8500  143.2718  159.0463 C.3     1  UNL1        0.1081
     28 C         142.5381  144.0372  157.7945 C.3     1  UNL1        0.0938
     29 N         141.8469  143.3554  156.6511 N.3     1  UNL1       -0.2686
     30 C         141.5350  144.1207  155.3993 C.3     1  UNL1        0.0897
     31 C         141.4677  141.9081  156.7594 C.3     1  UNL1        0.0938
     32 C         141.7797  141.1427  158.0112 C.3     1  UNL1        0.1081
@<TRIPOS>BOND
     1    12    13    1
     2    13    14   ar
     3    14    15   ar
     4    15    16   ar
     5    16    19    1
     6    19    20    2
     7    19    21   am
     8    21    23    1
     9    23    24    1
    10    24    25    1
    11    16    17   ar
    12    17    18   ar
    13    18     1    1
    14     1     2   ar
    15     2     3   ar
    16     3     4   ar
    17     4     5   ar
    18     5     6   ar
    19     6     7   ar
    20     7    26    1
    21    26    27    1
    22    27    28    1
    23    28    29    1
    24    29    30    1
    25    29    31    1
    26    31    32    1
    27     7     8   ar
    28     8     9   ar
    29     9    10   ar
    30    10    11    2
    31    18    13   ar
    32    10     1   ar
    33    25    23    1
    34     9     4   ar
    35    32    26    1
    36    21    22    1
