@<TRIPOS>MOLECULE
*****
 40 45 0 0 0
SMALL
GASTEIGER

@<TRIPOS>ATOM
      1 C         140.9122  145.3029  159.0480 C.3     1  UNL1        0.0294
      2 C         140.1285  144.4771  158.0713 C.3     1  UNL1        0.0666
      3 S         140.3404  142.9937  158.0037 S.3     1  UNL1       -0.0756
      4 C         140.5788  141.1627  161.4179 C.ar    1  UNL1        0.1669
      5 N         141.9632  140.9535  160.8795 N.ar    1  UNL1       -0.1282
      6 N         142.0423  141.6140  159.5350 N.ar    1  UNL1       -0.1221
      7 C         140.7069  142.2313  159.2425 C.ar    1  UNL1        0.1932
      8 N         139.8025  141.9524  160.4061 N.ar    1  UNL1       -0.2884
      9 C         138.3726  142.3869  160.5354 C.3     1  UNL1        0.1340
     10 C         143.7881  138.0090  166.6145 C.3     1  UNL1        0.0521
     11 C         142.8565  138.6740  165.6450 C.ar    1  UNL1        0.0593
     12 C         143.3737  139.1678  164.3264 C.ar    1  UNL1        0.0147
     13 C         142.4420  139.8328  163.3569 C.ar    1  UNL1        0.0028
     14 C         140.9933  140.0039  163.7059 C.ar    1  UNL1        0.0206
     15 C         140.0617  140.6689  162.7364 C.ar    1  UNL1        0.0374
     16 C         138.6130  140.8400  163.0855 C.ar    1  UNL1        0.0031
     17 C         138.0958  140.3461  164.4041 C.ar    1  UNL1        0.0016
     18 C         139.0274  139.6812  165.3736 C.ar    1  UNL1        0.0191
     19 C         140.4761  139.5101  165.0245 C.ar    1  UNL1        0.0810
     20 N         141.4077  138.8451  165.9941 N.ar    1  UNL1       -0.2497
     21 C         140.2555  145.8110  160.2972 C.3     1  UNL1        0.0730
     22 N         140.5252  145.1412  161.6120 N.3     1  UNL1       -0.2720
     23 C         141.9266  144.6459  161.8146 C.3     1  UNL1        0.0768
     24 C         142.5067  143.9423  163.0057 C.3     1  UNL1        0.0434
     25 C         141.8289  143.5603  164.2880 C.ar    1  UNL1       -0.0230
     26 C         142.7753  142.8666  165.2225 C.ar    1  UNL1        0.0178
     27 C         142.2962  142.4001  166.5652 C.ar    1  UNL1        0.1182
     28 N         142.9932  141.6929  167.6895 N.ar    1  UNL1       -0.2119
     29 C         141.9985  141.4829  168.7925 C.ar    1  UNL1        0.2144
     30 O         140.6869  142.0604  168.3499 O.2     1  UNL1       -0.4381
     31 C         140.8708  142.6272  166.9735 C.ar    1  UNL1        0.1640
     32 C         139.9244  143.3209  166.0389 C.ar    1  UNL1        0.0346
     33 C         140.4035  143.7874  164.6962 C.ar    1  UNL1       -0.0216
     34 C         139.3039  144.4527  163.9228 C.3     1  UNL1        0.0434
     35 C         139.3581  145.0552  162.5502 C.3     1  UNL1        0.0768
     36 C         142.2684  140.8131  170.1073 C.3     1  UNL1        0.1882
     37 C         142.5269  139.3363  170.1575 C.3     1  UNL1        0.4065
     38 F         142.7854  137.8597  170.2076 F       1  UNL1       -0.1695
     39 F         141.4267  139.1100  169.1633 F       1  UNL1       -0.1695
     40 F         143.6271  139.5628  171.1516 F       1  UNL1       -0.1695
@<TRIPOS>BOND
     1    10    11    1
     2    11    12   ar
     3    12    13   ar
     4    13    14   ar
     5    14    15   ar
     6    15     4    1
     7     4     5   ar
     8     5     6   ar
     9     6     7   ar
    10     7     3    1
    11     3     2    1
    12     2     1    1
    13     1    21    1
    14    21    22    1
    15    22    23    1
    16    23    24    1
    17    24    25    1
    18    25    26   ar
    19    26    27   ar
    20    27    28   ar
    21    28    29   ar
    22    29    36    1
    23    36    37    1
    24    37    38    1
    25    37    39    1
    26    37    40    1
    27    29    30   ar
    28    30    31   ar
    29    31    32   ar
    30    32    33   ar
    31    33    34    1
    32    34    35    1
    33     7     8   ar
    34     8     9    1
    35    15    16   ar
    36    16    17   ar
    37    17    18   ar
    38    18    19   ar
    39    19    20   ar
    40    20    11   ar
    41    19    14   ar
    42     8     4   ar
    43    35    22    1
    44    33    25   ar
    45    31    27   ar
@<TRIPOS>MOLECULE
*****
 40 45 0 0 0
SMALL
GASTEIGER

@<TRIPOS>ATOM
      1 C         140.8130  145.4435  159.2577 C.3     1  UNL1        0.0294
      2 C         140.1492  144.7668  158.0951 C.3     1  UNL1        0.0666
      3 S         140.0018  143.2742  158.0803 S.3     1  UNL1       -0.0756
      4 C         140.2909  141.2629  161.3874 C.ar    1  UNL1        0.1669
      5 N         138.8091  141.4834  161.3107 N.ar    1  UNL1       -0.1282
      6 N         138.5205  142.2636  160.0626 N.ar    1  UNL1       -0.1221
      7 C         139.8239  142.5254  159.3678 C.ar    1  UNL1        0.1932
      8 N         140.9179  141.9069  160.1865 N.ar    1  UNL1       -0.2884
      9 C         142.3822  141.9286  159.8616 C.3     1  UNL1        0.1340
     10 C         138.1552  139.0648  167.5402 C.3     1  UNL1        0.0521
     11 C         138.8708  139.4305  166.2736 C.ar    1  UNL1        0.0593
     12 C         138.1439  140.1659  165.1870 C.ar    1  UNL1        0.0147
     13 C         138.8596  140.5315  163.9205 C.ar    1  UNL1        0.0028
     14 C         140.3021  140.1619  163.7405 C.ar    1  UNL1        0.0206
     15 C         141.0177  140.5276  162.4739 C.ar    1  UNL1        0.0374
     16 C         142.4603  140.1579  162.2941 C.ar    1  UNL1        0.0031
     17 C         143.1872  139.4225  163.3808 C.ar    1  UNL1        0.0016
     18 C         142.4716  139.0568  164.6473 C.ar    1  UNL1        0.0191
     19 C         141.0291  139.4265  164.8272 C.ar    1  UNL1        0.0810
     20 N         140.3134  139.0608  166.0938 N.ar    1  UNL1       -0.2497
     21 C         140.0194  145.7713  160.4876 C.3     1  UNL1        0.0730
     22 N         140.3397  145.0971  161.7887 N.3     1  UNL1       -0.2720
     23 C         141.7620  144.6515  161.9579 C.3     1  UNL1        0.0768
     24 C         142.3913  143.9564  163.1288 C.3     1  UNL1        0.0434
     25 C         141.7537  143.5352  164.4195 C.ar    1  UNL1       -0.0230
     26 C         142.7434  142.8664  165.3269 C.ar    1  UNL1        0.0178
     27 C         142.3087  142.3674  166.6730 C.ar    1  UNL1        0.1182
     28 N         143.0535  141.6737  167.7748 N.ar    1  UNL1       -0.2119
     29 C         142.0895  141.4148  168.8946 C.ar    1  UNL1        0.2144
     30 O         140.7489  141.9485  168.4847 O.2     1  UNL1       -0.4381
     31 C         140.8844  142.5372  167.1118 C.ar    1  UNL1        0.1640
     32 C         139.8947  143.2061  166.2044 C.ar    1  UNL1        0.0346
     33 C         140.3294  143.7050  164.8583 C.ar    1  UNL1       -0.0216
     34 C         139.1909  144.3381  164.1146 C.3     1  UNL1        0.0434
     35 C         139.1955  144.9576  162.7485 C.3     1  UNL1        0.0768
     36 C         142.4099  140.7406  170.1956 C.3     1  UNL1        0.1882
     37 C         142.5891  139.2521  170.2448 C.3     1  UNL1        0.4065
     38 F         142.7682  137.7637  170.2939 F       1  UNL1       -0.1695
     39 F         141.4666  139.0847  169.2639 F       1  UNL1       -0.1695
     40 F         143.7115  139.4196  171.2256 F       1  UNL1       -0.1695
@<TRIPOS>BOND
     1    10    11    1
     2    11    12   ar
     3    12    13   ar
     4    13    14   ar
     5    14    15   ar
     6    15     4    1
     7     4     5   ar
     8     5     6   ar
     9     6     7   ar
    10     7     3    1
    11     3     2    1
    12     2     1    1
    13     1    21    1
    14    21    22    1
    15    22    23    1
    16    23    24    1
    17    24    25    1
    18    25    26   ar
    19    26    27   ar
    20    27    28   ar
    21    28    29   ar
    22    29    36    1
    23    36    37    1
    24    37    38    1
    25    37    39    1
    26    37    40    1
    27    29    30   ar
    28    30    31   ar
    29    31    32   ar
    30    32    33   ar
    31    33    34    1
    32    34    35    1
    33     7     8   ar
    34     8     9    1
    35    15    16   ar
    36    16    17   ar
    37    17    18   ar
    38    18    19   ar
    39    19    20   ar
    40    20    11   ar
    41    19    14   ar
    42     8     4   ar
    43    35    22    1
    44    33    25   ar
    45    31    27   ar
@<TRIPOS>MOLECULE
*****
 40 45 0 0 0
SMALL
GASTEIGER

@<TRIPOS>ATOM
      1 C         143.1341  142.4913  157.6226 C.3     1  UNL1        0.0294
      2 C         143.2922  141.4344  156.5700 C.3     1  UNL1        0.0666
      3 S         142.4432  140.1986  156.6146 S.3     1  UNL1       -0.0756
      4 C         141.4853  138.5947  160.0169 C.ar    1  UNL1        0.1669
      5 N         142.7534  137.8600  159.6969 N.ar    1  UNL1       -0.1282
      6 N         143.2665  138.3714  158.3835 N.ar    1  UNL1       -0.1221
      7 C         142.3156  139.4222  157.8917 C.ar    1  UNL1        0.1932
      8 N         141.2149  139.5601  158.9012 N.ar    1  UNL1       -0.2884
      9 C         140.0483  140.4988  158.8110 C.3     1  UNL1        0.1340
     10 C         143.0995  138.7840  166.6960 C.3     1  UNL1        0.0521
     11 C         142.4839  138.6876  165.3315 C.ar    1  UNL1        0.0593
     12 C         143.3324  138.8839  164.1102 C.ar    1  UNL1        0.0147
     13 C         142.7167  138.7875  162.7458 C.ar    1  UNL1        0.0028
     14 C         141.2525  138.4948  162.6026 C.ar    1  UNL1        0.0206
     15 C         140.6368  138.3984  161.2381 C.ar    1  UNL1        0.0374
     16 C         139.1727  138.1057  161.0951 C.ar    1  UNL1        0.0031
     17 C         138.3242  137.9094  162.3163 C.ar    1  UNL1        0.0016
     18 C         138.9398  138.0058  163.6807 C.ar    1  UNL1        0.0191
     19 C         140.4040  138.2985  163.8239 C.ar    1  UNL1        0.0810
     20 N         141.0196  138.3949  165.1884 N.ar    1  UNL1       -0.2497
     21 C         144.1657  142.6350  158.7020 C.3     1  UNL1        0.0730
     22 N         143.7564  142.5724  160.1437 N.3     1  UNL1       -0.2720
     23 C         142.2794  142.5134  160.3990 C.3     1  UNL1        0.0768
     24 C         141.5594  142.4446  161.7132 C.3     1  UNL1        0.0434
     25 C         142.1386  142.4176  163.0965 C.ar    1  UNL1       -0.0230
     26 C         141.0630  142.3458  164.1396 C.ar    1  UNL1        0.0178
     27 C         141.4296  142.3092  165.5936 C.ar    1  UNL1        0.1182
     28 N         140.5947  142.2387  166.8378 N.ar    1  UNL1       -0.2119
     29 C         141.5209  142.2305  168.0177 C.ar    1  UNL1        0.2144
     30 O         142.9281  142.2959  167.5028 O.2     1  UNL1       -0.4381
     31 C         142.8718  142.3445  166.0047 C.ar    1  UNL1        0.1640
     32 C         143.9474  142.4163  164.9616 C.ar    1  UNL1        0.0346
     33 C         143.5808  142.4529  163.5075 C.ar    1  UNL1       -0.0216
     34 C         144.8000  142.5239  162.6366 C.3     1  UNL1        0.0434
     35 C         144.8781  142.5770  161.1395 C.3     1  UNL1        0.0768
     36 C         141.1115  142.1679  169.4594 C.3     1  UNL1        0.1882
     37 C         139.8187  141.5116  169.8441 C.3     1  UNL1        0.4065
     38 F         138.5259  140.8553  170.2288 F       1  UNL1       -0.1695
     39 F         139.3404  142.8027  170.4394 F       1  UNL1       -0.1695
     40 F         140.2969  140.2206  169.2487 F       1  UNL1       -0.1695
@<TRIPOS>BOND
     1    10    11    1
     2    11    12   ar
     3    12    13   ar
     4    13    14   ar
     5    14    15   ar
     6    15     4    1
     7     4     5   ar
     8     5     6   ar
     9     6     7   ar
    10     7     3    1
    11     3     2    1
    12     2     1    1
    13     1    21    1
    14    21    22    1
    15    22    23    1
    16    23    24    1
    17    24    25    1
    18    25    26   ar
    19    26    27   ar
    20    27    28   ar
    21    28    29   ar
    22    29    36    1
    23    36    37    1
    24    37    38    1
    25    37    39    1
    26    37    40    1
    27    29    30   ar
    28    30    31   ar
    29    31    32   ar
    30    32    33   ar
    31    33    34    1
    32    34    35    1
    33     7     8   ar
    34     8     9    1
    35    15    16   ar
    36    16    17   ar
    37    17    18   ar
    38    18    19   ar
    39    19    20   ar
    40    20    11   ar
    41    19    14   ar
    42     8     4   ar
    43    35    22    1
    44    33    25   ar
    45    31    27   ar
@<TRIPOS>MOLECULE
*****
 40 45 0 0 0
SMALL
GASTEIGER

@<TRIPOS>ATOM
      1 C         140.1339  139.6466  158.0624 C.3     1  UNL1        0.0294
      2 C         138.8245  139.8971  157.3747 C.3     1  UNL1        0.0666
      3 S         138.1212  141.2095  157.5560 S.3     1  UNL1       -0.0756
      4 C         139.0966  143.3062  160.6734 C.ar    1  UNL1        0.1669
      5 N         139.7018  144.1254  159.5721 N.ar    1  UNL1       -0.1282
      6 N         139.4101  143.4397  158.2704 N.ar    1  UNL1       -0.1221
      7 C         138.6246  142.1967  158.5671 C.ar    1  UNL1        0.1932
      8 N         138.4309  142.1142  160.0522 N.ar    1  UNL1       -0.2884
      9 C         137.6998  141.0300  160.7871 C.3     1  UNL1        0.1340
     10 C         144.4125  143.6575  165.0173 C.3     1  UNL1        0.0521
     11 C         143.0964  143.6490  164.2976 C.ar    1  UNL1        0.0593
     12 C         143.0449  143.3318  162.8324 C.ar    1  UNL1        0.0147
     13 C         141.7288  143.3233  162.1127 C.ar    1  UNL1        0.0028
     14 C         140.4643  143.6319  162.8582 C.ar    1  UNL1        0.0206
     15 C         139.1482  143.6233  162.1385 C.ar    1  UNL1        0.0374
     16 C         137.8838  143.9319  162.8841 C.ar    1  UNL1        0.0031
     17 C         137.9353  144.2490  164.3493 C.ar    1  UNL1        0.0016
     18 C         139.2513  144.2576  165.0689 C.ar    1  UNL1        0.0191
     19 C         140.5158  143.9490  164.3234 C.ar    1  UNL1        0.0810
     20 N         141.8319  143.9576  165.0431 N.ar    1  UNL1       -0.2497
     21 C         140.2703  138.5013  159.0213 C.3     1  UNL1        0.0730
     22 N         140.1481  138.7401  160.4971 N.3     1  UNL1       -0.2720
     23 C         141.1445  139.6940  161.0867 C.3     1  UNL1        0.0768
     24 C         141.2846  140.1369  162.5130 C.3     1  UNL1        0.0434
     25 C         140.4630  139.7352  163.7019 C.ar    1  UNL1       -0.0230
     26 C         140.9396  140.4139  164.9519 C.ar    1  UNL1        0.0178
     27 C         140.2516  140.1489  166.2581 C.ar    1  UNL1        0.1182
     28 N         140.4953  140.6677  167.6443 N.ar    1  UNL1       -0.2119
     29 C         139.4814  140.0446  168.5574 C.ar    1  UNL1        0.2144
     30 O         138.6111  139.1407  167.7355 O.2     1  UNL1       -0.4381
     31 C         139.0870  139.2052  166.3146 C.ar    1  UNL1        0.1640
     32 C         138.6105  138.5265  165.0646 C.ar    1  UNL1        0.0346
     33 C         139.2985  138.7915  163.7584 C.ar    1  UNL1       -0.0216
     34 C         138.6678  138.0163  162.6397 C.3     1  UNL1        0.0434
     35 C         139.0460  137.9935  161.1883 C.3     1  UNL1        0.0768
     36 C         139.3593  140.2834  170.0332 C.3     1  UNL1        0.1882
     37 C         140.2587  141.2755  170.7092 C.3     1  UNL1        0.4065
     38 F         141.1580  142.2676  171.3852 F       1  UNL1       -0.1695
     39 F         139.2970  142.3765  170.3729 F       1  UNL1       -0.1695
     40 F         141.2204  140.1746  171.0455 F       1  UNL1       -0.1695
@<TRIPOS>BOND
     1    10    11    1
     2    11    12   ar
     3    12    13   ar
     4    13    14   ar
     5    14    15   ar
     6    15     4    1
     7     4     5   ar
     8     5     6   ar
     9     6     7   ar
    10     7     3    1
    11     3     2    1
    12     2     1    1
    13     1    21    1
    14    21    22    1
    15    22    23    1
    16    23    24    1
    17    24    25    1
    18    25    26   ar
    19    26    27   ar
    20    27    28   ar
    21    28    29   ar
    22    29    36    1
    23    36    37    1
    24    37    38    1
    25    37    39    1
    26    37    40    1
    27    29    30   ar
    28    30    31   ar
    29    31    32   ar
    30    32    33   ar
    31    33    34    1
    32    34    35    1
    33     7     8   ar
    34     8     9    1
    35    15    16   ar
    36    16    17   ar
    37    17    18   ar
    38    18    19   ar
    39    19    20   ar
    40    20    11   ar
    41    19    14   ar
    42     8     4   ar
    43    35    22    1
    44    33    25   ar
    45    31    27   ar
@<TRIPOS>MOLECULE
*****
 40 45 0 0 0
SMALL
GASTEIGER

@<TRIPOS>ATOM
      1 C         139.7601  138.0653  158.6644 C.3     1  UNL1        0.0294
      2 C         140.6126  138.1683  157.4344 C.3     1  UNL1        0.0666
      3 S         142.0969  138.3419  157.5631 S.3     1  UNL1       -0.0756
      4 C         143.5745  139.4009  160.9925 C.ar    1  UNL1        0.1669
      5 N         143.7955  137.9176  161.0272 N.ar    1  UNL1       -0.1282
      6 N         143.2689  137.3404  159.7468 N.ar    1  UNL1       -0.1221
      7 C         142.7224  138.4669  158.9207 C.ar    1  UNL1        0.1932
      8 N         142.9113  139.7403  159.6906 N.ar    1  UNL1       -0.2884
      9 C         142.5078  141.1123  159.2380 C.3     1  UNL1        0.1340
     10 C         142.6865  139.1358  167.8036 C.3     1  UNL1        0.0521
     11 C         143.0026  139.4453  166.3703 C.ar    1  UNL1        0.0593
     12 C         142.6264  138.4723  165.2924 C.ar    1  UNL1        0.0147
     13 C         142.9424  138.7819  163.8591 C.ar    1  UNL1        0.0028
     14 C         143.6346  140.0643  163.5037 C.ar    1  UNL1        0.0206
     15 C         143.9506  140.3738  162.0703 C.ar    1  UNL1        0.0374
     16 C         144.6428  141.6562  161.7151 C.ar    1  UNL1        0.0031
     17 C         145.0190  142.6291  162.7930 C.ar    1  UNL1        0.0016
     18 C         144.7030  142.3196  164.2262 C.ar    1  UNL1        0.0191
     19 C         144.0108  141.0372  164.5816 C.ar    1  UNL1        0.0810
     20 N         143.6948  140.7278  166.0150 N.ar    1  UNL1       -0.2497
     21 C         139.1729  139.3029  159.2756 C.3     1  UNL1        0.0730
     22 N         139.2319  139.5065  160.7605 N.3     1  UNL1       -0.2720
     23 C         138.6469  138.4038  161.5924 C.3     1  UNL1        0.0768
     24 C         138.5537  138.3082  163.0865 C.3     1  UNL1        0.0434
     25 C         139.0223  139.2916  164.1176 C.ar    1  UNL1       -0.0230
     26 C         138.7346  138.8069  165.5077 C.ar    1  UNL1        0.0178
     27 C         139.1245  139.6442  166.6896 C.ar    1  UNL1        0.1182
     28 N         138.9712  139.4294  168.1662 N.ar    1  UNL1       -0.2119
     29 C         139.5541  140.6186  168.8706 C.ar    1  UNL1        0.2144
     30 O         140.0676  141.5683  167.8294 O.2     1  UNL1       -0.4381
     31 C         139.8021  140.9662  166.4815 C.ar    1  UNL1        0.1640
     32 C         140.0898  141.4508  165.0914 C.ar    1  UNL1        0.0346
     33 C         139.6999  140.6135  163.9095 C.ar    1  UNL1       -0.0216
     34 C         140.0763  141.2785  162.6187 C.3     1  UNL1        0.0434
     35 C         139.8680  140.7858  161.2173 C.3     1  UNL1        0.0768
     36 C         139.6131  140.8221  170.3556 C.3     1  UNL1        0.1882
     37 C         140.7445  141.5984  170.9618 C.3     1  UNL1        0.4065
     38 F         141.8759  142.3745  171.5680 F       1  UNL1       -0.1695
     39 F         141.5178  140.3264  171.1469 F       1  UNL1       -0.1695
     40 F         139.9711  142.8702  170.7766 F       1  UNL1       -0.1695
@<TRIPOS>BOND
     1    10    11    1
     2    11    12   ar
     3    12    13   ar
     4    13    14   ar
     5    14    15   ar
     6    15     4    1
     7     4     5   ar
     8     5     6   ar
     9     6     7   ar
    10     7     3    1
    11     3     2    1
    12     2     1    1
    13     1    21    1
    14    21    22    1
    15    22    23    1
    16    23    24    1
    17    24    25    1
    18    25    26   ar
    19    26    27   ar
    20    27    28   ar
    21    28    29   ar
    22    29    36    1
    23    36    37    1
    24    37    38    1
    25    37    39    1
    26    37    40    1
    27    29    30   ar
    28    30    31   ar
    29    31    32   ar
    30    32    33   ar
    31    33    34    1
    32    34    35    1
    33     7     8   ar
    34     8     9    1
    35    15    16   ar
    36    16    17   ar
    37    17    18   ar
    38    18    19   ar
    39    19    20   ar
    40    20    11   ar
    41    19    14   ar
    42     8     4   ar
    43    35    22    1
    44    33    25   ar
    45    31    27   ar
@<TRIPOS>MOLECULE
*****
 40 45 0 0 0
SMALL
GASTEIGER

@<TRIPOS>ATOM
      1 C         140.2721  145.3181  158.6725 C.3     1  UNL1        0.0294
      2 C         139.9898  144.4364  157.4922 C.3     1  UNL1        0.0666
      3 S         139.1891  143.1803  157.6689 S.3     1  UNL1       -0.0756
      4 C         139.6217  141.0270  160.8691 C.ar    1  UNL1        0.1669
      5 N         138.4831  141.9174  161.2705 N.ar    1  UNL1       -0.1282
      6 N         138.1826  142.8323  160.1206 N.ar    1  UNL1       -0.1221
      7 C         139.1353  142.5075  159.0084 C.ar    1  UNL1        0.1932
      8 N         140.0247  141.3918  159.4711 N.ar    1  UNL1       -0.2884
      9 C         141.1242  140.7529  158.6754 C.3     1  UNL1        0.1340
     10 C         138.2608  139.0130  167.2989 C.3     1  UNL1        0.0521
     11 C         138.7574  139.2496  165.9034 C.ar    1  UNL1        0.0593
     12 C         138.1318  140.3172  165.0556 C.ar    1  UNL1        0.0147
     13 C         138.6284  140.5538  163.6601 C.ar    1  UNL1        0.0028
     14 C         139.7507  139.7228  163.1124 C.ar    1  UNL1        0.0206
     15 C         140.2473  139.9594  161.7169 C.ar    1  UNL1        0.0374
     16 C         141.3695  139.1283  161.1693 C.ar    1  UNL1        0.0031
     17 C         141.9951  138.0607  162.0171 C.ar    1  UNL1        0.0016
     18 C         141.4985  137.8241  163.4125 C.ar    1  UNL1        0.0191
     19 C         140.3763  138.6551  163.9602 C.ar    1  UNL1        0.0810
     20 N         139.8797  138.4185  165.3557 N.ar    1  UNL1       -0.2497
     21 C         141.5903  145.2227  159.3817 C.3     1  UNL1        0.0730
     22 N         141.7012  144.4407  160.6569 N.3     1  UNL1       -0.2720
     23 C         140.7451  144.8312  161.7449 C.3     1  UNL1        0.0768
     24 C         140.6051  144.2490  163.1203 C.3     1  UNL1        0.0434
     25 C         141.3865  143.1327  163.7472 C.ar    1  UNL1       -0.0230
     26 C         140.9252  142.8605  165.1484 C.ar    1  UNL1        0.0178
     27 C         141.5783  141.7783  165.9560 C.ar    1  UNL1        0.1182
     28 N         141.3394  141.2849  167.3522 N.ar    1  UNL1       -0.2119
     29 C         142.3060  140.1700  167.6217 C.ar    1  UNL1        0.2144
     30 O         143.1425  139.9744  166.3921 O.2     1  UNL1       -0.4381
     31 C         142.6928  140.9684  165.3627 C.ar    1  UNL1        0.1640
     32 C         143.1541  141.2406  163.9615 C.ar    1  UNL1        0.0346
     33 C         142.5009  142.3228  163.1538 C.ar    1  UNL1       -0.0216
     34 C         143.1092  142.4292  161.7868 C.3     1  UNL1        0.0434
     35 C         142.7532  143.3718  160.6756 C.3     1  UNL1        0.0768
     36 C         142.4167  139.3881  168.8970 C.3     1  UNL1        0.1882
     37 C         142.1184  140.0489  170.2102 C.3     1  UNL1        0.4065
     38 F         141.8201  140.7097  171.5233 F       1  UNL1       -0.1695
     39 F         143.5074  140.6145  170.2410 F       1  UNL1       -0.1695
     40 F         140.7295  139.4832  170.1793 F       1  UNL1       -0.1695
@<TRIPOS>BOND
     1    10    11    1
     2    11    12   ar
     3    12    13   ar
     4    13    14   ar
     5    14    15   ar
     6    15     4    1
     7     4     5   ar
     8     5     6   ar
     9     6     7   ar
    10     7     3    1
    11     3     2    1
    12     2     1    1
    13     1    21    1
    14    21    22    1
    15    22    23    1
    16    23    24    1
    17    24    25    1
    18    25    26   ar
    19    26    27   ar
    20    27    28   ar
    21    28    29   ar
    22    29    36    1
    23    36    37    1
    24    37    38    1
    25    37    39    1
    26    37    40    1
    27    29    30   ar
    28    30    31   ar
    29    31    32   ar
    30    32    33   ar
    31    33    34    1
    32    34    35    1
    33     7     8   ar
    34     8     9    1
    35    15    16   ar
    36    16    17   ar
    37    17    18   ar
    38    18    19   ar
    39    19    20   ar
    40    20    11   ar
    41    19    14   ar
    42     8     4   ar
    43    35    22    1
    44    33    25   ar
    45    31    27   ar
@<TRIPOS>MOLECULE
*****
 40 45 0 0 0
SMALL
GASTEIGER

@<TRIPOS>ATOM
      1 C         139.7085  140.4204  168.2077 C.3     1  UNL1        0.0294
      2 C         140.6700  139.8475  169.2064 C.3     1  UNL1        0.0666
      3 S         142.1431  139.8642  168.9243 S.3     1  UNL1       -0.0756
      4 C         143.4753  142.0828  166.0314 C.ar    1  UNL1        0.1669
      5 N         143.7470  142.9595  167.2179 N.ar    1  UNL1       -0.1282
      6 N         143.2810  142.2351  168.4459 N.ar    1  UNL1       -0.1221
      7 C         142.7213  140.9107  168.0184 C.ar    1  UNL1        0.1932
      8 N         142.8415  140.8166  166.5263 N.ar    1  UNL1       -0.2884
      9 C         142.4044  139.6593  165.6778 C.3     1  UNL1        0.1340
     10 C         140.0820  145.9556  161.4777 C.3     1  UNL1        0.0521
     11 C         141.0073  145.0702  162.2586 C.ar    1  UNL1        0.0593
     12 C         140.6992  144.7389  163.6888 C.ar    1  UNL1        0.0147
     13 C         141.6246  143.8535  164.4696 C.ar    1  UNL1        0.0028
     14 C         142.8581  143.2995  163.8204 C.ar    1  UNL1        0.0206
     15 C         143.7835  142.4141  164.6014 C.ar    1  UNL1        0.0374
     16 C         145.0169  141.8601  163.9521 C.ar    1  UNL1        0.0031
     17 C         145.3251  142.1915  162.5219 C.ar    1  UNL1        0.0016
     18 C         144.3998  143.0768  161.7411 C.ar    1  UNL1        0.0191
     19 C         143.1662  143.6308  162.3903 C.ar    1  UNL1        0.0810
     20 N         142.2409  144.5162  161.6093 N.ar    1  UNL1       -0.2497
     21 C         138.8832  139.5063  167.3515 C.3     1  UNL1        0.0730
     22 N         138.7940  139.7412  165.8727 N.3     1  UNL1       -0.2720
     23 C         138.8201  138.5104  165.0155 C.3     1  UNL1        0.0768
     24 C         138.7492  138.4102  163.5205 C.3     1  UNL1        0.0434
     25 C         138.6346  139.5159  162.5135 C.ar    1  UNL1       -0.0230
     26 C         138.5934  138.9797  161.1132 C.ar    1  UNL1        0.0178
     27 C         138.4802  139.9226  159.9521 C.ar    1  UNL1        0.1182
     28 N         138.4176  139.6889  158.4718 N.ar    1  UNL1       -0.2119
     29 C         138.3070  141.0235  157.7960 C.ar    1  UNL1        0.2144
     30 O         138.3011  142.0820  158.8588 O.2     1  UNL1       -0.4381
     31 C         138.4082  141.4017  160.1912 C.ar    1  UNL1        0.1640
     32 C         138.4494  141.9379  161.5916 C.ar    1  UNL1        0.0346
     33 C         138.5626  140.9950  162.7527 C.ar    1  UNL1       -0.0216
     34 C         138.5875  141.7336  164.0580 C.3     1  UNL1        0.0434
     35 C         138.6905  141.1755  165.4465 C.3     1  UNL1        0.0768
     36 C         138.2178  141.2583  156.3172 C.3     1  UNL1        0.1882
     37 C         136.9504  140.9368  155.5819 C.3     1  UNL1        0.4065
     38 F         135.6831  140.6154  154.8467 F       1  UNL1       -0.1695
     39 F         136.1572  141.6461  156.6392 F       1  UNL1       -0.1695
     40 F         137.7437  140.2276  154.5247 F       1  UNL1       -0.1695
@<TRIPOS>BOND
     1    10    11    1
     2    11    12   ar
     3    12    13   ar
     4    13    14   ar
     5    14    15   ar
     6    15     4    1
     7     4     5   ar
     8     5     6   ar
     9     6     7   ar
    10     7     3    1
    11     3     2    1
    12     2     1    1
    13     1    21    1
    14    21    22    1
    15    22    23    1
    16    23    24    1
    17    24    25    1
    18    25    26   ar
    19    26    27   ar
    20    27    28   ar
    21    28    29   ar
    22    29    36    1
    23    36    37    1
    24    37    38    1
    25    37    39    1
    26    37    40    1
    27    29    30   ar
    28    30    31   ar
    29    31    32   ar
    30    32    33   ar
    31    33    34    1
    32    34    35    1
    33     7     8   ar
    34     8     9    1
    35    15    16   ar
    36    16    17   ar
    37    17    18   ar
    38    18    19   ar
    39    19    20   ar
    40    20    11   ar
    41    19    14   ar
    42     8     4   ar
    43    35    22    1
    44    33    25   ar
    45    31    27   ar
@<TRIPOS>MOLECULE
*****
 40 45 0 0 0
SMALL
GASTEIGER

@<TRIPOS>ATOM
      1 C         140.8879  138.3090  158.2918 C.3     1  UNL1        0.0294
      2 C         141.3199  139.4795  157.4590 C.3     1  UNL1        0.0666
      3 S         142.6641  140.1054  157.6852 S.3     1  UNL1       -0.0756
      4 C         143.2136  141.9730  161.0432 C.ar    1  UNL1        0.1669
      5 N         144.0333  140.7359  161.2620 N.ar    1  UNL1       -0.1282
      6 N         143.9272  139.8858  160.0308 N.ar    1  UNL1       -0.1221
      7 C         143.0420  140.5974  159.0510 C.ar    1  UNL1        0.1932
      8 N         142.6010  141.8873  159.6767 N.ar    1  UNL1       -0.2884
      9 C         141.7047  142.9119  159.0465 C.3     1  UNL1        0.1340
     10 C         137.7069  144.0081  164.6188 C.3     1  UNL1        0.0521
     11 C         139.0396  143.7806  163.9689 C.ar    1  UNL1        0.0593
     12 C         139.2156  142.6554  162.9926 C.ar    1  UNL1        0.0147
     13 C         140.5483  142.4280  162.3428 C.ar    1  UNL1        0.0028
     14 C         141.7049  143.3256  162.6692 C.ar    1  UNL1        0.0206
     15 C         143.0376  143.0981  162.0194 C.ar    1  UNL1        0.0374
     16 C         144.1941  143.9958  162.3458 C.ar    1  UNL1        0.0031
     17 C         144.0180  145.1209  163.3221 C.ar    1  UNL1        0.0016
     18 C         142.6854  145.3484  163.9719 C.ar    1  UNL1        0.0191
     19 C         141.5288  144.4507  163.6455 C.ar    1  UNL1        0.0810
     20 N         140.1962  144.6783  164.2954 N.ar    1  UNL1       -0.2497
     21 C         139.6216  138.3847  159.0921 C.3     1  UNL1        0.0730
     22 N         139.6826  138.6241  160.5717 N.3     1  UNL1       -0.2720
     23 C         141.0527  138.5850  161.1812 C.3     1  UNL1        0.0768
     24 C         141.4440  138.7831  162.6157 C.3     1  UNL1        0.0434
     25 C         140.5621  139.0692  163.7947 C.ar    1  UNL1       -0.0230
     26 C         141.3606  139.1972  165.0581 C.ar    1  UNL1        0.0178
     27 C         140.6679  139.4838  166.3574 C.ar    1  UNL1        0.1182
     28 N         141.1867  139.6625  167.7534 N.ar    1  UNL1       -0.2119
     29 C         140.0163  139.9315  168.6521 C.ar    1  UNL1        0.2144
     30 O         138.7741  139.9191  167.8115 O.2     1  UNL1       -0.4381
     31 C         139.1767  139.6425  166.3934 C.ar    1  UNL1        0.1640
     32 C         138.3782  139.5144  165.1300 C.ar    1  UNL1        0.0346
     33 C         139.0709  139.2278  163.8307 C.ar    1  UNL1       -0.0216
     34 C         138.0934  139.1395  162.6964 C.3     1  UNL1        0.0434
     35 C         138.3657  138.8709  161.2460 C.3     1  UNL1        0.0768
     36 C         140.0774  140.1709  170.1316 C.3     1  UNL1        0.1882
     37 C         140.6404  141.4568  170.6606 C.3     1  UNL1        0.4065
     38 F         141.2033  142.7425  171.1896 F       1  UNL1       -0.1695
     39 F         141.8591  140.7257  171.1406 F       1  UNL1       -0.1695
     40 F         139.4217  142.1877  170.1807 F       1  UNL1       -0.1695
@<TRIPOS>BOND
     1    10    11    1
     2    11    12   ar
     3    12    13   ar
     4    13    14   ar
     5    14    15   ar
     6    15     4    1
     7     4     5   ar
     8     5     6   ar
     9     6     7   ar
    10     7     3    1
    11     3     2    1
    12     2     1    1
    13     1    21    1
    14    21    22    1
    15    22    23    1
    16    23    24    1
    17    24    25    1
    18    25    26   ar
    19    26    27   ar
    20    27    28   ar
    21    28    29   ar
    22    29    36    1
    23    36    37    1
    24    37    38    1
    25    37    39    1
    26    37    40    1
    27    29    30   ar
    28    30    31   ar
    29    31    32   ar
    30    32    33   ar
    31    33    34    1
    32    34    35    1
    33     7     8   ar
    34     8     9    1
    35    15    16   ar
    36    16    17   ar
    37    17    18   ar
    38    18    19   ar
    39    19    20   ar
    40    20    11   ar
    41    19    14   ar
    42     8     4   ar
    43    35    22    1
    44    33    25   ar
    45    31    27   ar
@<TRIPOS>MOLECULE
*****
 40 45 0 0 0
SMALL
GASTEIGER

@<TRIPOS>ATOM
      1 C         141.3473  140.2601  157.8554 C.3     1  UNL1        0.0294
      2 C         141.6085  141.4184  156.9387 C.3     1  UNL1        0.0666
      3 S         141.1108  142.7868  157.2987 S.3     1  UNL1       -0.0756
      4 C         140.8447  143.7809  161.0413 C.ar    1  UNL1        0.1669
      5 N         142.1694  144.3820  160.6751 N.ar    1  UNL1       -0.1282
      6 N         142.4303  144.0827  159.2286 N.ar    1  UNL1       -0.1221
      7 C         141.2668  143.2967  158.7007 C.ar    1  UNL1        0.1932
      8 N         140.2870  143.1102  159.8210 N.ar    1  UNL1       -0.2884
      9 C         138.9789  142.3810  159.7359 C.3     1  UNL1        0.1340
     10 C         143.3459  142.4765  167.3097 C.3     1  UNL1        0.0521
     11 C         142.5575  142.8174  166.0799 C.ar    1  UNL1        0.0593
     12 C         143.2099  142.7581  164.7304 C.ar    1  UNL1        0.0147
     13 C         142.4215  143.0991  163.5007 C.ar    1  UNL1        0.0028
     14 C         140.9808  143.4993  163.6204 C.ar    1  UNL1        0.0206
     15 C         140.1924  143.8402  162.3906 C.ar    1  UNL1        0.0374
     16 C         138.7518  144.2403  162.5104 C.ar    1  UNL1        0.0031
     17 C         138.0995  144.2996  163.8598 C.ar    1  UNL1        0.0016
     18 C         138.8878  143.9587  165.0895 C.ar    1  UNL1        0.0191
     19 C         140.3285  143.5585  164.9698 C.ar    1  UNL1        0.0810
     20 N         141.1168  143.2176  166.1996 N.ar    1  UNL1       -0.2497
     21 C         142.4834  139.6174  158.5943 C.3     1  UNL1        0.0730
     22 N         142.4611  139.5501  160.0927 N.3     1  UNL1       -0.2720
     23 C         141.1558  139.9059  160.7406 C.3     1  UNL1        0.0768
     24 C         140.8140  139.9354  162.2009 C.3     1  UNL1        0.0434
     25 C         141.6929  139.6164  163.3737 C.ar    1  UNL1       -0.0230
     26 C         140.9546  139.7718  164.6702 C.ar    1  UNL1        0.0178
     27 C         141.6541  139.4999  165.9689 C.ar    1  UNL1        0.1182
     28 N         141.1885  139.5679  167.3932 N.ar    1  UNL1       -0.2119
     29 C         142.3385  139.1827  168.2758 C.ar    1  UNL1        0.2144
     30 O         143.5149  138.8766  167.3970 O.2     1  UNL1       -0.4381
     31 C         143.0919  139.0726  165.9713 C.ar    1  UNL1        0.1640
     32 C         143.8303  138.9173  164.6749 C.ar    1  UNL1        0.0346
     33 C         143.1308  139.1892  163.3761 C.ar    1  UNL1       -0.0216
     34 C         144.0448  138.9754  162.2062 C.3     1  UNL1        0.0434
     35 C         143.7467  139.1361  160.7449 C.3     1  UNL1        0.0768
     36 C         142.3161  139.1154  169.7741 C.3     1  UNL1        0.1882
     37 C         142.1449  140.3699  170.5787 C.3     1  UNL1        0.4065
     38 F         141.9737  141.6242  171.3832 F       1  UNL1       -0.1695
     39 F         140.7578  139.9397  170.9542 F       1  UNL1       -0.1695
     40 F         143.5319  140.8000  170.2031 F       1  UNL1       -0.1695
@<TRIPOS>BOND
     1    10    11    1
     2    11    12   ar
     3    12    13   ar
     4    13    14   ar
     5    14    15   ar
     6    15     4    1
     7     4     5   ar
     8     5     6   ar
     9     6     7   ar
    10     7     3    1
    11     3     2    1
    12     2     1    1
    13     1    21    1
    14    21    22    1
    15    22    23    1
    16    23    24    1
    17    24    25    1
    18    25    26   ar
    19    26    27   ar
    20    27    28   ar
    21    28    29   ar
    22    29    36    1
    23    36    37    1
    24    37    38    1
    25    37    39    1
    26    37    40    1
    27    29    30   ar
    28    30    31   ar
    29    31    32   ar
    30    32    33   ar
    31    33    34    1
    32    34    35    1
    33     7     8   ar
    34     8     9    1
    35    15    16   ar
    36    16    17   ar
    37    17    18   ar
    38    18    19   ar
    39    19    20   ar
    40    20    11   ar
    41    19    14   ar
    42     8     4   ar
    43    35    22    1
    44    33    25   ar
    45    31    27   ar
