@<TRIPOS>MOLECULE
*****
 41 45 0 0 0
SMALL
GASTEIGER

@<TRIPOS>ATOM
      1 C         142.8658  144.1242  162.4680 C.2     1  UNL1        0.2251
      2 O         144.0555  145.0141  162.6748 O.2     1  UNL1       -0.2749
      3 N         142.4291  143.1904  163.5576 N.am    1  UNL1       -0.2795
      4 C         141.2395  142.3005  163.3507 C.3     1  UNL1        0.0940
      5 C         140.8028  141.3667  164.4403 C.3     1  UNL1        0.0297
      6 C         141.5558  141.3227  165.7369 C.3     1  UNL1        0.0425
      7 C         142.7456  142.2126  165.9437 C.3     1  UNL1        0.0297
      8 C         143.1822  143.1464  164.8541 C.3     1  UNL1        0.0940
      9 C         140.6067  144.2561  158.5783 C.3     1  UNL1        0.0542
     10 C         141.7823  143.3373  158.7320 C.3     1  UNL1        0.0162
     11 C         142.5354  143.2934  160.0286 C.3     1  UNL1        0.0104
     12 C         142.1127  144.1682  161.1714 C.3     1  UNL1        0.0768
     13 C         140.9370  145.0870  161.0177 C.3     1  UNL1        0.0095
     14 C         139.8974  146.1144  161.3550 C.3     1  UNL1        0.0005
     15 C         141.3290  145.3998  162.4314 C.3     1  UNL1        0.0005
     16 C         140.1840  145.1309  159.7212 C.3     1  UNL1        0.0162
     17 N         139.8536  144.3000  157.2818 N.3     1  UNL1       -0.2962
     18 H         139.6372  143.3345  157.0341 H       1  UNL1        0.1235
     19 C         140.4797  144.9275  156.0717 C.3     1  UNL1        0.0768
     20 C         141.4957  144.1661  155.2730 C.3     1  UNL1        0.0220
     21 C         139.3100  149.0939  154.8377 C.ar    1  UNL1        0.1387
     22 C         138.8911  148.5627  156.1765 C.ar    1  UNL1        0.0366
     23 C         139.2810  147.1739  156.5878 C.ar    1  UNL1        0.0001
     24 C         140.0898  146.3163  155.6604 C.ar    1  UNL1       -0.0078
     25 C         140.5088  146.8474  154.3216 C.ar    1  UNL1        0.0001
     26 C         140.1189  148.2362  153.9103 C.ar    1  UNL1        0.0366
     27 C         138.5773  151.5052  155.4689 C.3     1  UNL1        0.2525
     28 O         138.9202  150.4827  154.4264 O.3     1  UNL1       -0.4714
     29 C         140.5004  140.2934  166.0136 C.ar    1  UNL1        0.0003
     30 C         139.5654  140.4709  167.1730 C.ar    1  UNL1       -0.0000
     31 C         138.5100  139.4417  167.4497 C.ar    1  UNL1        0.0305
     32 C         138.3895  138.2348  166.5670 C.ar    1  UNL1        0.1383
     33 CL        137.3341  137.2056  166.8437 Cl      1  UNL1       -0.0613
     34 N         139.3245  138.0573  165.4076 N.ar    1  UNL1       -0.2328
     35 C         140.3800  139.0866  165.1309 C.ar    1  UNL1        0.0958
     36 C         141.9423  140.9213  167.1295 C.ar    1  UNL1       -0.0189
     37 C         141.8456  141.9136  168.2501 C.ar    1  UNL1       -0.0040
     38 C         142.2321  141.5122  169.6428 C.ar    1  UNL1       -0.0003
     39 C         142.7153  140.1185  169.9148 C.ar    1  UNL1       -0.0000
     40 C         142.8120  139.1262  168.7942 C.ar    1  UNL1       -0.0003
     41 C         142.4255  139.5275  167.4015 C.ar    1  UNL1       -0.0040
@<TRIPOS>BOND
     1    27    28    1
     2    28    21    1
     3    21    22   ar
     4    22    23   ar
     5    23    24   ar
     6    24    19    1
     7    19    20    1
     8    19    17    1
     9     9    17    1
    10     9    10    1
    11    10    11    1
    12    11    12    1
    13    12     1    1
    14     1     2    2
    15     1     3   am
    16     3     4    1
    17     4     5    1
    18     5     6    1
    19     6    36    1
    20    36    37   ar
    21    37    38   ar
    22    38    39   ar
    23    39    40   ar
    24    40    41   ar
    25     6    29    1
    26    29    30   ar
    27    30    31   ar
    28    31    32   ar
    29    32    33    1
    30    32    34   ar
    31    34    35   ar
    32     6     7    1
    33     7     8    1
    34    12    13    1
    35    13    14    1
    36    13    15    1
    37    13    16    1
    38    24    25   ar
    39    25    26   ar
    40    26    21   ar
    41    16     9    1
    42     8     3    1
    43    41    36   ar
    44    35    29   ar
    45    17    18    1
@<TRIPOS>MOLECULE
*****
 41 45 0 0 0
SMALL
GASTEIGER

@<TRIPOS>ATOM
      1 C         142.9080  144.2416  162.6639 C.2     1  UNL1        0.2251
      2 O         144.1061  145.1180  162.8801 O.2     1  UNL1       -0.2749
      3 N         142.4653  143.2972  163.7418 N.am    1  UNL1       -0.2795
      4 C         141.2673  142.4209  163.5256 C.3     1  UNL1        0.0940
      5 C         140.8245  141.4764  164.6035 C.3     1  UNL1        0.0297
      6 C         141.5797  141.4083  165.8977 C.3     1  UNL1        0.0425
      7 C         142.7778  142.2846  166.1140 C.3     1  UNL1        0.0297
      8 C         143.2205  143.2291  165.0360 C.3     1  UNL1        0.0940
      9 C         140.6422  144.4460  158.7813 C.3     1  UNL1        0.0542
     10 C         141.8491  143.5632  158.8998 C.3     1  UNL1        0.0162
     11 C         142.6043  143.4951  160.1940 C.3     1  UNL1        0.0104
     12 C         142.1527  144.3097  161.3697 C.3     1  UNL1        0.0768
     13 C         140.9458  145.1926  161.2512 C.3     1  UNL1        0.0095
     14 C         139.8716  146.1696  161.6276 C.3     1  UNL1        0.0005
     15 C         141.3280  145.4638  162.6761 C.3     1  UNL1        0.0005
     16 C         140.1905  145.2607  159.9571 C.3     1  UNL1        0.0162
     17 N         139.8870  144.5141  157.4871 N.3     1  UNL1       -0.2962
     18 H         139.2995  145.3467  157.5325 H       1  UNL1        0.1235
     19 C         138.9972  143.3782  157.0773 C.3     1  UNL1        0.0768
     20 C         138.1623  143.4896  155.8362 C.3     1  UNL1        0.0220
     21 C         138.8324  139.6362  159.5714 C.ar    1  UNL1        0.1387
     22 C         139.4597  139.6027  158.2093 C.ar    1  UNL1        0.0366
     23 C         139.5146  140.8500  157.3780 C.ar    1  UNL1        0.0001
     24 C         138.9423  142.1309  157.9087 C.ar    1  UNL1       -0.0078
     25 C         138.3150  142.1644  159.2708 C.ar    1  UNL1        0.0001
     26 C         138.2601  140.9171  160.1022 C.ar    1  UNL1        0.0366
     27 C         138.0072  138.3787  161.6898 C.3     1  UNL1        0.2525
     28 O         138.7775  138.3889  160.4028 O.3     1  UNL1       -0.4714
     29 C         140.5157  140.3848  166.1629 C.ar    1  UNL1        0.0003
     30 C         139.6151  140.5305  167.3535 C.ar    1  UNL1       -0.0000
     31 C         138.5510  139.5070  167.6187 C.ar    1  UNL1        0.0305
     32 C         138.3876  138.3379  166.6932 C.ar    1  UNL1        0.1383
     33 CL        137.3235  137.3145  166.9583 Cl      1  UNL1       -0.0613
     34 N         139.2882  138.1923  165.5026 N.ar    1  UNL1       -0.2328
     35 C         140.3523  139.2157  165.2374 C.ar    1  UNL1        0.0958
     36 C         141.9655  140.9847  167.2840 C.ar    1  UNL1       -0.0189
     37 C         141.9326  141.9775  168.4080 C.ar    1  UNL1       -0.0040
     38 C         142.3183  141.5539  169.7943 C.ar    1  UNL1       -0.0003
     39 C         142.7369  140.1377  170.0566 C.ar    1  UNL1       -0.0000
     40 C         142.7698  139.1449  168.9326 C.ar    1  UNL1       -0.0003
     41 C         142.3841  139.5684  167.5463 C.ar    1  UNL1       -0.0040
@<TRIPOS>BOND
     1    27    28    1
     2    28    21    1
     3    21    22   ar
     4    22    23   ar
     5    23    24   ar
     6    24    19    1
     7    19    20    1
     8    19    17    1
     9     9    17    1
    10     9    10    1
    11    10    11    1
    12    11    12    1
    13    12     1    1
    14     1     2    2
    15     1     3   am
    16     3     4    1
    17     4     5    1
    18     5     6    1
    19     6    36    1
    20    36    37   ar
    21    37    38   ar
    22    38    39   ar
    23    39    40   ar
    24    40    41   ar
    25     6    29    1
    26    29    30   ar
    27    30    31   ar
    28    31    32   ar
    29    32    33    1
    30    32    34   ar
    31    34    35   ar
    32     6     7    1
    33     7     8    1
    34    12    13    1
    35    13    14    1
    36    13    15    1
    37    13    16    1
    38    24    25   ar
    39    25    26   ar
    40    26    21   ar
    41    16     9    1
    42     8     3    1
    43    41    36   ar
    44    35    29   ar
    45    17    18    1
@<TRIPOS>MOLECULE
*****
 41 45 0 0 0
SMALL
GASTEIGER

@<TRIPOS>ATOM
      1 C         140.5391  144.1728  161.7478 C.2     1  UNL1        0.2251
      2 O         141.4817  145.1605  162.3693 O.2     1  UNL1       -0.2749
      3 N         140.2577  144.2286  160.2755 N.am    1  UNL1       -0.2795
      4 C         139.3152  143.2409  159.6542 C.3     1  UNL1        0.0940
      5 C         139.0338  143.2966  158.1818 C.3     1  UNL1        0.0297
      6 C         139.6950  144.3400  157.3309 C.3     1  UNL1        0.0425
      7 C         140.6376  145.3277  157.9523 C.3     1  UNL1        0.0297
      8 C         140.9190  145.2720  159.4246 C.3     1  UNL1        0.0940
      9 C         138.5554  141.0426  164.3007 C.3     1  UNL1        0.0542
     10 C         139.6756  140.6597  163.3795 C.3     1  UNL1        0.0162
     11 C         140.3368  141.7031  162.5286 C.3     1  UNL1        0.0104
     12 C         139.8779  143.1294  162.5988 C.3     1  UNL1        0.0768
     13 C         138.7577  143.5124  163.5200 C.3     1  UNL1        0.0095
     14 C         137.7450  144.3599  164.2315 C.3     1  UNL1        0.0005
     15 C         139.0672  144.8501  162.9161 C.3     1  UNL1        0.0005
     16 C         138.0964  142.4690  164.3709 C.3     1  UNL1        0.0162
     17 N         137.8942  139.9992  165.1516 N.3     1  UNL1       -0.2962
     18 H         137.3169  140.4954  165.8305 H       1  UNL1        0.1235
     19 C         138.7295  139.0226  165.9252 C.3     1  UNL1        0.0768
     20 C         138.5558  137.5489  165.7065 C.3     1  UNL1        0.0220
     21 C         141.7565  140.5140  168.9024 C.ar    1  UNL1        0.1387
     22 C         142.1992  140.0771  167.5374 C.ar    1  UNL1        0.0366
     23 C         141.1902  139.5799  166.5451 C.ar    1  UNL1        0.0001
     24 C         139.7385  139.5197  166.9176 C.ar    1  UNL1       -0.0078
     25 C         139.2958  139.9567  168.2825 C.ar    1  UNL1        0.0001
     26 C         140.3048  140.4538  169.2749 C.ar    1  UNL1        0.0366
     27 C         143.5907  142.2240  169.5818 C.3     1  UNL1        0.2525
     28 O         142.7655  141.0111  169.8947 O.3     1  UNL1       -0.4714
     29 C         138.8843  143.6290  156.2882 C.ar    1  UNL1        0.0003
     30 C         137.7545  144.3392  155.6034 C.ar    1  UNL1       -0.0000
     31 C         136.9438  143.6281  154.5608 C.ar    1  UNL1        0.0305
     32 C         137.2629  142.2068  154.2030 C.ar    1  UNL1        0.1383
     33 CL        136.4522  141.4957  153.1603 Cl      1  UNL1       -0.0613
     34 N         138.3927  141.4966  154.8878 N.ar    1  UNL1       -0.2328
     35 C         139.2035  142.2076  155.9305 C.ar    1  UNL1        0.0958
     36 C         140.0747  145.1365  156.1179 C.ar    1  UNL1       -0.0189
     37 C         139.5463  146.5289  155.9393 C.ar    1  UNL1       -0.0040
     38 C         139.9260  147.3254  154.7262 C.ar    1  UNL1       -0.0003
     39 C         140.8340  146.7295  153.6918 C.ar    1  UNL1       -0.0000
     40 C         141.3624  145.3370  153.8703 C.ar    1  UNL1       -0.0003
     41 C         140.9828  144.5405  155.0833 C.ar    1  UNL1       -0.0040
@<TRIPOS>BOND
     1    27    28    1
     2    28    21    1
     3    21    22   ar
     4    22    23   ar
     5    23    24   ar
     6    24    19    1
     7    19    20    1
     8    19    17    1
     9     9    17    1
    10     9    10    1
    11    10    11    1
    12    11    12    1
    13    12     1    1
    14     1     2    2
    15     1     3   am
    16     3     4    1
    17     4     5    1
    18     5     6    1
    19     6    36    1
    20    36    37   ar
    21    37    38   ar
    22    38    39   ar
    23    39    40   ar
    24    40    41   ar
    25     6    29    1
    26    29    30   ar
    27    30    31   ar
    28    31    32   ar
    29    32    33    1
    30    32    34   ar
    31    34    35   ar
    32     6     7    1
    33     7     8    1
    34    12    13    1
    35    13    14    1
    36    13    15    1
    37    13    16    1
    38    24    25   ar
    39    25    26   ar
    40    26    21   ar
    41    16     9    1
    42     8     3    1
    43    41    36   ar
    44    35    29   ar
    45    17    18    1
@<TRIPOS>MOLECULE
*****
 41 45 0 0 0
SMALL
GASTEIGER

@<TRIPOS>ATOM
      1 C         140.2666  145.0304  162.0765 C.2     1  UNL1        0.2251
      2 O         140.2004  146.5284  162.0328 O.2     1  UNL1       -0.2749
      3 N         140.2570  144.2417  160.8007 N.am    1  UNL1       -0.2795
      4 C         140.3232  142.7438  160.8444 C.3     1  UNL1        0.0940
      5 C         140.3136  141.9550  159.5685 C.3     1  UNL1        0.0297
      6 C         140.2378  142.6642  158.2489 C.3     1  UNL1        0.0425
      7 C         140.1715  144.1622  158.2052 C.3     1  UNL1        0.0297
      8 C         140.1812  144.9509  159.4811 C.3     1  UNL1        0.0940
      9 C         140.4942  142.9029  166.0353 C.3     1  UNL1        0.0542
     10 C         141.7426  143.1400  165.2384 C.3     1  UNL1        0.0162
     11 C         141.6668  143.8492  163.9188 C.3     1  UNL1        0.0104
     12 C         140.3425  144.3212  163.3961 C.3     1  UNL1        0.0768
     13 C         139.0939  144.0841  164.1930 C.3     1  UNL1        0.0095
     14 C         137.6442  144.0946  164.5780 C.3     1  UNL1        0.0005
     15 C         138.5146  144.7969  163.0071 C.3     1  UNL1        0.0005
     16 C         139.1698  143.3750  165.5126 C.3     1  UNL1        0.0162
     17 N         140.5700  142.1937  167.3549 N.3     1  UNL1       -0.2962
     18 H         141.5447  142.2303  167.6532 H       1  UNL1        0.1235
     19 C         140.1377  140.7615  167.4625 C.3     1  UNL1        0.0768
     20 C         139.7972  140.1796  168.8024 C.3     1  UNL1        0.0220
     21 C         139.8622  138.2103  163.7658 C.ar    1  UNL1        0.1387
     22 C         141.1915  138.4386  164.4222 C.ar    1  UNL1        0.0366
     23 C         141.2833  139.2890  165.6544 C.ar    1  UNL1        0.0001
     24 C         140.0459  139.9111  166.2303 C.ar    1  UNL1       -0.0078
     25 C         138.7166  139.6829  165.5739 C.ar    1  UNL1        0.0001
     26 C         138.6248  138.8325  164.3416 C.ar    1  UNL1        0.0366
     27 C         139.4128  137.9834  161.2170 C.3     1  UNL1        0.2525
     28 O         139.7704  137.3600  162.5335 O.3     1  UNL1       -0.4714
     29 C         140.2831  141.2409  157.7776 C.ar    1  UNL1        0.0003
     30 C         141.5345  140.6966  157.1548 C.ar    1  UNL1       -0.0000
     31 C         141.5798  139.2734  156.6834 C.ar    1  UNL1        0.0305
     32 C         140.3738  138.3944  156.8348 C.ar    1  UNL1        0.1383
     33 CL        140.4191  136.9711  156.3634 Cl      1  UNL1       -0.0613
     34 N         139.1224  138.9387  157.4576 N.ar    1  UNL1       -0.2328
     35 C         139.0771  140.3619  157.9289 C.ar    1  UNL1        0.0958
     36 C         140.1777  142.8791  156.7657 C.ar    1  UNL1       -0.0189
     37 C         138.9028  142.6152  156.0206 C.ar    1  UNL1       -0.0040
     38 C         138.8427  142.8301  154.5373 C.ar    1  UNL1       -0.0003
     39 C         140.0574  143.3088  153.7990 C.ar    1  UNL1       -0.0000
     40 C         141.3323  143.5727  154.5440 C.ar    1  UNL1       -0.0003
     41 C         141.3925  143.3578  156.0273 C.ar    1  UNL1       -0.0040
@<TRIPOS>BOND
     1    27    28    1
     2    28    21    1
     3    21    22   ar
     4    22    23   ar
     5    23    24   ar
     6    24    19    1
     7    19    20    1
     8    19    17    1
     9     9    17    1
    10     9    10    1
    11    10    11    1
    12    11    12    1
    13    12     1    1
    14     1     2    2
    15     1     3   am
    16     3     4    1
    17     4     5    1
    18     5     6    1
    19     6    36    1
    20    36    37   ar
    21    37    38   ar
    22    38    39   ar
    23    39    40   ar
    24    40    41   ar
    25     6    29    1
    26    29    30   ar
    27    30    31   ar
    28    31    32   ar
    29    32    33    1
    30    32    34   ar
    31    34    35   ar
    32     6     7    1
    33     7     8    1
    34    12    13    1
    35    13    14    1
    36    13    15    1
    37    13    16    1
    38    24    25   ar
    39    25    26   ar
    40    26    21   ar
    41    16     9    1
    42     8     3    1
    43    41    36   ar
    44    35    29   ar
    45    17    18    1
@<TRIPOS>MOLECULE
*****
 41 45 0 0 0
SMALL
GASTEIGER

@<TRIPOS>ATOM
      1 C         143.0802  144.0403  162.3765 C.2     1  UNL1        0.2251
      2 O         144.1087  145.0745  162.7272 O.2     1  UNL1       -0.2749
      3 N         142.5596  143.1118  163.4332 N.am    1  UNL1       -0.2795
      4 C         141.5312  142.0777  163.0825 C.3     1  UNL1        0.0940
      5 C         141.0106  141.1491  164.1392 C.3     1  UNL1        0.0297
      6 C         141.5185  141.2545  165.5467 C.3     1  UNL1        0.0425
      7 C         142.5469  142.2886  165.8974 C.3     1  UNL1        0.0297
      8 C         143.0675  143.2172  164.8407 C.3     1  UNL1        0.0940
      9 C         141.5566  143.7240  158.1541 C.3     1  UNL1        0.0542
     10 C         142.7701  142.9485  158.5737 C.3     1  UNL1        0.0162
     11 C         143.2780  143.0540  159.9811 C.3     1  UNL1        0.0104
     12 C         142.5723  143.9349  160.9690 C.3     1  UNL1        0.0768
     13 C         141.3588  144.7104  160.5495 C.3     1  UNL1        0.0095
     14 C         140.1794  145.6339  160.6283 C.3     1  UNL1        0.0005
     15 C         141.4570  145.1366  161.9843 C.3     1  UNL1        0.0005
     16 C         140.8509  144.6050  159.1421 C.3     1  UNL1        0.0162
     17 N         141.0488  143.6185  156.7466 N.3     1  UNL1       -0.2962
     18 H         141.6788  144.1701  156.1642 H       1  UNL1        0.1235
     19 C         139.6544  144.0625  156.4172 C.3     1  UNL1        0.0768
     20 C         139.3918  145.4898  156.0378 C.3     1  UNL1        0.0220
     21 C         136.2593  141.1129  156.5670 C.ar    1  UNL1        0.1387
     22 C         136.2174  142.2559  155.5967 C.ar    1  UNL1        0.0366
     23 C         137.3491  143.2392  155.5468 C.ar    1  UNL1        0.0001
     24 C         138.5227  143.0793  156.4671 C.ar    1  UNL1       -0.0078
     25 C         138.5645  141.9362  157.4375 C.ar    1  UNL1        0.0001
     26 C         137.4328  140.9530  157.4874 C.ar    1  UNL1        0.0366
     27 C         133.8554  140.4120  155.8742 C.3     1  UNL1        0.2525
     28 O         135.1276  140.1296  156.6170 O.3     1  UNL1       -0.4714
     29 C         140.5495  140.1203  165.7037 C.ar    1  UNL1        0.0003
     30 C         139.3442  140.2796  166.5821 C.ar    1  UNL1       -0.0000
     31 C         138.3753  139.1454  166.7391 C.ar    1  UNL1        0.0305
     32 C         138.6117  137.8517  166.0175 C.ar    1  UNL1        0.1383
     33 CL        137.6428  136.7175  166.1745 Cl      1  UNL1       -0.0613
     34 N         139.8170  137.6924  165.1391 N.ar    1  UNL1       -0.2328
     35 C         140.7859  138.8266  164.9821 C.ar    1  UNL1        0.0958
     36 C         141.6898  140.9661  167.0086 C.ar    1  UNL1       -0.0189
     37 C         141.1838  141.9413  168.0299 C.ar    1  UNL1       -0.0040
     38 C         141.3552  141.6528  169.4919 C.ar    1  UNL1       -0.0003
     39 C         142.0325  140.3892  169.9327 C.ar    1  UNL1       -0.0000
     40 C         142.5385  139.4140  168.9114 C.ar    1  UNL1       -0.0003
     41 C         142.3672  139.7023  167.4494 C.ar    1  UNL1       -0.0040
@<TRIPOS>BOND
     1    27    28    1
     2    28    21    1
     3    21    22   ar
     4    22    23   ar
     5    23    24   ar
     6    24    19    1
     7    19    20    1
     8    19    17    1
     9     9    17    1
    10     9    10    1
    11    10    11    1
    12    11    12    1
    13    12     1    1
    14     1     2    2
    15     1     3   am
    16     3     4    1
    17     4     5    1
    18     5     6    1
    19     6    36    1
    20    36    37   ar
    21    37    38   ar
    22    38    39   ar
    23    39    40   ar
    24    40    41   ar
    25     6    29    1
    26    29    30   ar
    27    30    31   ar
    28    31    32   ar
    29    32    33    1
    30    32    34   ar
    31    34    35   ar
    32     6     7    1
    33     7     8    1
    34    12    13    1
    35    13    14    1
    36    13    15    1
    37    13    16    1
    38    24    25   ar
    39    25    26   ar
    40    26    21   ar
    41    16     9    1
    42     8     3    1
    43    41    36   ar
    44    35    29   ar
    45    17    18    1
@<TRIPOS>MOLECULE
*****
 41 45 0 0 0
SMALL
GASTEIGER

@<TRIPOS>ATOM
      1 C         143.5526  138.7240  161.6754 C.2     1  UNL1        0.2251
      2 O         144.3731  137.5006  161.3922 O.2     1  UNL1       -0.2749
      3 N         143.2385  139.6886  160.5705 N.am    1  UNL1       -0.2795
      4 C         142.4181  140.9120  160.8537 C.3     1  UNL1        0.0940
      5 C         142.1039  141.8767  159.7488 C.3     1  UNL1        0.0297
      6 C         142.6102  141.6179  158.3607 C.3     1  UNL1        0.0425
      7 C         143.4306  140.3944  158.0775 C.3     1  UNL1        0.0297
      8 C         143.7447  139.4298  159.1824 C.3     1  UNL1        0.0940
      9 C         142.0339  139.5004  165.8396 C.3     1  UNL1        0.0542
     10 C         143.2305  140.2453  165.3267 C.3     1  UNL1        0.0162
     11 C         143.7367  139.9865  163.9386 C.3     1  UNL1        0.0104
     12 C         143.0464  138.9828  163.0635 C.3     1  UNL1        0.0768
     13 C         141.8497  138.2378  163.5764 C.3     1  UNL1        0.0095
     14 C         140.6889  137.2885  163.6115 C.3     1  UNL1        0.0005
     15 C         141.9528  137.6494  162.2006 C.3     1  UNL1        0.0005
     16 C         141.3435  138.4966  164.9645 C.3     1  UNL1        0.0162
     17 N         141.5277  139.7592  167.2277 N.3     1  UNL1       -0.2962
     18 H         141.4500  138.8516  167.6867 H       1  UNL1        0.1235
     19 C         140.2170  140.4601  167.4295 C.3     1  UNL1        0.0768
     20 C         139.4203  140.2162  168.6768 C.3     1  UNL1        0.0220
     21 C         138.6748  143.2945  164.2929 C.ar    1  UNL1        0.1387
     22 C         138.1451  141.8929  164.3629 C.ar    1  UNL1        0.0366
     23 C         138.6591  140.9481  165.4084 C.ar    1  UNL1        0.0001
     24 C         139.7029  141.4049  166.3839 C.ar    1  UNL1       -0.0078
     25 C         140.2327  142.8064  166.3140 C.ar    1  UNL1        0.0001
     26 C         139.7187  143.7512  165.2685 C.ar    1  UNL1        0.0366
     27 C         139.0854  145.2414  162.6223 C.3     1  UNL1        0.2525
     28 O         138.1608  144.2393  163.2474 O.3     1  UNL1       -0.4714
     29 C         141.8772  142.9069  158.1346 C.ar    1  UNL1        0.0003
     30 C         142.6395  144.1941  158.0258 C.ar    1  UNL1       -0.0000
     31 C         141.9065  145.4831  157.7997 C.ar    1  UNL1        0.0305
     32 C         140.4111  145.4849  157.6823 C.ar    1  UNL1        0.1383
     33 CL        139.6781  146.7739  157.4561 Cl      1  UNL1       -0.0613
     34 N         139.6487  144.1977  157.7910 N.ar    1  UNL1       -0.2328
     35 C         140.3817  142.9087  158.0171 C.ar    1  UNL1        0.0958
     36 C         142.8618  141.8068  156.8941 C.ar    1  UNL1       -0.0189
     37 C         144.1657  142.3809  156.4247 C.ar    1  UNL1       -0.0040
     38 C         144.4173  142.5698  154.9581 C.ar    1  UNL1       -0.0003
     39 C         143.3653  142.1845  153.9609 C.ar    1  UNL1       -0.0000
     40 C         142.0614  141.6104  154.4302 C.ar    1  UNL1       -0.0003
     41 C         141.8096  141.4215  155.8968 C.ar    1  UNL1       -0.0040
@<TRIPOS>BOND
     1    27    28    1
     2    28    21    1
     3    21    22   ar
     4    22    23   ar
     5    23    24   ar
     6    24    19    1
     7    19    20    1
     8    19    17    1
     9     9    17    1
    10     9    10    1
    11    10    11    1
    12    11    12    1
    13    12     1    1
    14     1     2    2
    15     1     3   am
    16     3     4    1
    17     4     5    1
    18     5     6    1
    19     6    36    1
    20    36    37   ar
    21    37    38   ar
    22    38    39   ar
    23    39    40   ar
    24    40    41   ar
    25     6    29    1
    26    29    30   ar
    27    30    31   ar
    28    31    32   ar
    29    32    33    1
    30    32    34   ar
    31    34    35   ar
    32     6     7    1
    33     7     8    1
    34    12    13    1
    35    13    14    1
    36    13    15    1
    37    13    16    1
    38    24    25   ar
    39    25    26   ar
    40    26    21   ar
    41    16     9    1
    42     8     3    1
    43    41    36   ar
    44    35    29   ar
    45    17    18    1
@<TRIPOS>MOLECULE
*****
 41 45 0 0 0
SMALL
GASTEIGER

@<TRIPOS>ATOM
      1 C         140.8450  144.8091  162.7565 C.2     1  UNL1        0.2251
      2 O         140.7484  146.3023  162.8615 O.2     1  UNL1       -0.2749
      3 N         140.5972  144.1322  161.4412 N.am    1  UNL1       -0.2795
      4 C         140.6937  142.6390  161.3362 C.3     1  UNL1        0.0940
      5 C         140.4459  141.9620  160.0208 C.3     1  UNL1        0.0297
      6 C         140.1015  142.7782  158.8103 C.3     1  UNL1        0.0425
      7 C         140.0050  144.2714  158.9153 C.3     1  UNL1        0.0297
      8 C         140.2528  144.9484  160.2307 C.3     1  UNL1        0.0940
      9 C         141.8781  142.3604  166.3879 C.3     1  UNL1        0.0542
     10 C         140.4417  142.5976  166.0271 C.3     1  UNL1        0.0162
     11 C         140.0973  143.4138  164.8166 C.3     1  UNL1        0.0104
     12 C         141.1894  143.9929  163.9670 C.3     1  UNL1        0.0768
     13 C         142.6260  143.7557  164.3278 C.3     1  UNL1        0.0095
     14 C         144.1235  143.8084  164.2600 C.3     1  UNL1        0.0005
     15 C         142.8016  144.5902  163.0938 C.3     1  UNL1        0.0005
     16 C         142.9703  142.9395  165.5382 C.3     1  UNL1        0.0162
     17 N         142.2225  141.5442  167.5983 N.3     1  UNL1       -0.2962
     18 H         143.1471  141.8472  167.9044 H       1  UNL1        0.1235
     19 C         142.2657  140.0477  167.5063 C.3     1  UNL1        0.0768
     20 C         142.5725  139.2299  168.7257 C.3     1  UNL1        0.0220
     21 C         141.4752  138.0115  163.5719 C.ar    1  UNL1        0.1387
     22 C         142.8650  138.4544  163.9213 C.ar    1  UNL1        0.0366
     23 C         143.1286  139.1332  165.2327 C.ar    1  UNL1        0.0001
     24 C         142.0022  139.3689  166.1948 C.ar    1  UNL1       -0.0078
     25 C         140.6124  138.9260  165.8455 C.ar    1  UNL1        0.0001
     26 C         140.3489  138.2473  164.5341 C.ar    1  UNL1        0.0366
     27 C         140.9116  138.1509  161.0396 C.3     1  UNL1        0.2525
     28 O         141.2117  137.3328  162.2605 O.3     1  UNL1       -0.4714
     29 C         140.0753  141.4025  158.2130 C.ar    1  UNL1        0.0003
     30 C         141.2243  140.9271  157.3741 C.ar    1  UNL1       -0.0000
     31 C         141.1981  139.5515  156.7767 C.ar    1  UNL1        0.0305
     32 C         140.0229  138.6512  157.0183 C.ar    1  UNL1        0.1383
     33 CL        139.9967  137.2755  156.4209 Cl      1  UNL1       -0.0613
     34 N         138.8739  139.1266  157.8571 N.ar    1  UNL1       -0.2328
     35 C         138.9001  140.5023  158.4545 C.ar    1  UNL1        0.0958
     36 C         139.7481  143.1167  157.3925 C.ar    1  UNL1       -0.0189
     37 C         140.8105  143.5970  156.4488 C.ar    1  UNL1       -0.0040
     38 C         140.4570  143.9355  155.0309 C.ar    1  UNL1       -0.0003
     39 C         139.0411  143.7936  154.5566 C.ar    1  UNL1       -0.0000
     40 C         137.9787  143.3133  155.5002 C.ar    1  UNL1       -0.0003
     41 C         138.3321  142.9748  156.9181 C.ar    1  UNL1       -0.0040
@<TRIPOS>BOND
     1    27    28    1
     2    28    21    1
     3    21    22   ar
     4    22    23   ar
     5    23    24   ar
     6    24    19    1
     7    19    20    1
     8    19    17    1
     9     9    17    1
    10     9    10    1
    11    10    11    1
    12    11    12    1
    13    12     1    1
    14     1     2    2
    15     1     3   am
    16     3     4    1
    17     4     5    1
    18     5     6    1
    19     6    36    1
    20    36    37   ar
    21    37    38   ar
    22    38    39   ar
    23    39    40   ar
    24    40    41   ar
    25     6    29    1
    26    29    30   ar
    27    30    31   ar
    28    31    32   ar
    29    32    33    1
    30    32    34   ar
    31    34    35   ar
    32     6     7    1
    33     7     8    1
    34    12    13    1
    35    13    14    1
    36    13    15    1
    37    13    16    1
    38    24    25   ar
    39    25    26   ar
    40    26    21   ar
    41    16     9    1
    42     8     3    1
    43    41    36   ar
    44    35    29   ar
    45    17    18    1
@<TRIPOS>MOLECULE
*****
 41 45 0 0 0
SMALL
GASTEIGER

@<TRIPOS>ATOM
      1 C         139.3679  144.2319  161.9673 C.2     1  UNL1        0.2251
      2 O         138.3189  145.2941  162.1142 O.2     1  UNL1       -0.2749
      3 N         139.7762  143.4117  163.1548 N.am    1  UNL1       -0.2795
      4 C         140.8252  142.3496  163.0078 C.3     1  UNL1        0.0940
      5 C         141.2336  141.5293  164.1954 C.3     1  UNL1        0.0297
      6 C         140.5931  141.7712  165.5301 C.3     1  UNL1        0.0425
      7 C         139.5441  142.8334  165.6771 C.3     1  UNL1        0.0297
      8 C         139.1357  143.6536  164.4895 C.3     1  UNL1        0.0940
      9 C         141.2894  143.5062  157.9634 C.3     1  UNL1        0.0542
     10 C         141.9267  144.4482  158.9414 C.3     1  UNL1        0.0162
     11 C         141.2861  144.6901  160.2760 C.3     1  UNL1        0.0104
     12 C         140.0084  143.9900  160.6326 C.3     1  UNL1        0.0768
     13 C         139.3711  143.0480  159.6546 C.3     1  UNL1        0.0095
     14 C         138.3934  142.0724  159.0694 C.3     1  UNL1        0.0005
     15 C         138.3910  142.9511  160.7859 C.3     1  UNL1        0.0005
     16 C         140.0116  142.8061  158.3199 C.3     1  UNL1        0.0162
     17 N         141.9299  143.2643  156.6288 N.3     1  UNL1       -0.2962
     18 H         141.1809  143.2745  155.9365 H       1  UNL1        0.1235
     19 C         142.7210  142.0120  156.3924 C.3     1  UNL1        0.0768
     20 C         143.4551  141.8217  155.0983 C.3     1  UNL1        0.0220
     21 C         142.8915  138.8259  159.5657 C.ar    1  UNL1        0.1387
     22 C         141.9603  138.6740  158.3997 C.ar    1  UNL1        0.0366
     23 C         141.9035  139.7360  157.3419 C.ar    1  UNL1        0.0001
     24 C         142.7778  140.9500  157.4502 C.ar    1  UNL1       -0.0078
     25 C         143.7090  141.1019  158.6163 C.ar    1  UNL1        0.0001
     26 C         143.7658  140.0399  159.6740 C.ar    1  UNL1        0.0366
     27 C         143.7471  137.9914  161.8725 C.3     1  UNL1        0.2525
     28 O         142.9483  137.7639  160.6235 O.3     1  UNL1       -0.4714
     29 C         141.5329  140.6589  165.8899 C.ar    1  UNL1        0.0003
     30 C         141.4694  139.3549  165.1515 C.ar    1  UNL1       -0.0000
     31 C         142.4092  138.2426  165.5114 C.ar    1  UNL1        0.0305
     32 C         143.4126  138.4344  166.6097 C.ar    1  UNL1        0.1383
     33 CL        144.3525  137.3221  166.9696 Cl      1  UNL1       -0.0613
     34 N         143.4762  139.7385  167.3482 N.ar    1  UNL1       -0.2328
     35 C         142.5363  140.8507  166.9883 C.ar    1  UNL1        0.0958
     36 C         140.2790  141.6268  166.9896 C.ar    1  UNL1       -0.0189
     37 C         139.6518  140.3636  167.5005 C.ar    1  UNL1       -0.0040
     38 C         139.3377  140.2192  168.9601 C.ar    1  UNL1       -0.0003
     39 C         139.6507  141.3380  169.9089 C.ar    1  UNL1       -0.0000
     40 C         140.2778  142.6012  169.3981 C.ar    1  UNL1       -0.0003
     41 C         140.5920  142.7457  167.9385 C.ar    1  UNL1       -0.0040
@<TRIPOS>BOND
     1    27    28    1
     2    28    21    1
     3    21    22   ar
     4    22    23   ar
     5    23    24   ar
     6    24    19    1
     7    19    20    1
     8    19    17    1
     9     9    17    1
    10     9    10    1
    11    10    11    1
    12    11    12    1
    13    12     1    1
    14     1     2    2
    15     1     3   am
    16     3     4    1
    17     4     5    1
    18     5     6    1
    19     6    36    1
    20    36    37   ar
    21    37    38   ar
    22    38    39   ar
    23    39    40   ar
    24    40    41   ar
    25     6    29    1
    26    29    30   ar
    27    30    31   ar
    28    31    32   ar
    29    32    33    1
    30    32    34   ar
    31    34    35   ar
    32     6     7    1
    33     7     8    1
    34    12    13    1
    35    13    14    1
    36    13    15    1
    37    13    16    1
    38    24    25   ar
    39    25    26   ar
    40    26    21   ar
    41    16     9    1
    42     8     3    1
    43    41    36   ar
    44    35    29   ar
    45    17    18    1
@<TRIPOS>MOLECULE
*****
 41 45 0 0 0
SMALL
GASTEIGER

@<TRIPOS>ATOM
      1 C         140.3590  142.0912  158.9450 C.2     1  UNL1        0.2251
      2 O         141.3498  143.1105  158.4660 O.2     1  UNL1       -0.2749
      3 N         140.3553  141.6672  160.3838 N.am    1  UNL1       -0.2795
      4 C         139.3646  140.6479  160.8627 C.3     1  UNL1        0.0940
      5 C         139.3609  140.2238  162.3016 C.3     1  UNL1        0.0297
      6 C         140.3480  140.8191  163.2614 C.3     1  UNL1        0.0425
      7 C         141.3388  141.8384  162.7824 C.3     1  UNL1        0.0297
      8 C         141.3424  142.2624  161.3436 C.3     1  UNL1        0.0940
      9 C         137.3977  140.3054  156.0655 C.3     1  UNL1        0.0542
     10 C         136.9924  141.4524  156.9430 C.3     1  UNL1        0.0162
     11 C         137.9795  142.0476  157.9029 C.3     1  UNL1        0.0104
     12 C         139.3719  141.4959  157.9852 C.3     1  UNL1        0.0768
     13 C         139.7773  140.3489  157.1076 C.3     1  UNL1        0.0095
     14 C         140.6280  139.2796  156.4887 C.3     1  UNL1        0.0005
     15 C         141.0598  140.5728  157.8525 C.3     1  UNL1        0.0005
     16 C         138.7902  139.7536  156.1477 C.3     1  UNL1        0.0162
     17 N         136.4106  139.7101  155.1056 N.3     1  UNL1       -0.2962
     18 H         136.9223  139.5023  154.2481 H       1  UNL1        0.1235
     19 C         135.1918  140.4873  154.7050 C.3     1  UNL1        0.0768
     20 C         135.2660  141.4664  153.5711 C.3     1  UNL1        0.0220
     21 C         131.3131  139.8814  156.9047 C.ar    1  UNL1        0.1387
     22 C         132.4494  138.9241  157.1102 C.ar    1  UNL1        0.0366
     23 C         133.7423  139.1260  156.3770 C.ar    1  UNL1        0.0001
     24 C         133.8989  140.2853  155.4382 C.ar    1  UNL1       -0.0078
     25 C         132.7627  141.2427  155.2326 C.ar    1  UNL1        0.0001
     26 C         131.4698  141.0408  155.9659 C.ar    1  UNL1        0.0366
     27 C         129.8094  138.4425  158.4596 C.3     1  UNL1        0.2525
     28 O         130.0203  139.6795  157.6379 O.3     1  UNL1       -0.4714
     29 C         139.6111  139.8951  164.1851 C.ar    1  UNL1        0.0003
     30 C         139.9307  138.4296  164.1920 C.ar    1  UNL1       -0.0000
     31 C         139.1939  137.5056  165.1157 C.ar    1  UNL1        0.0305
     32 C         138.1374  138.0471  166.0326 C.ar    1  UNL1        0.1383
     33 CL        137.4006  137.1231  166.9563 Cl      1  UNL1       -0.0613
     34 N         137.8178  139.5126  166.0258 N.ar    1  UNL1       -0.2328
     35 C         138.5547  140.4367  165.1021 C.ar    1  UNL1        0.0958
     36 C         141.0792  141.0935  164.5420 C.ar    1  UNL1       -0.0189
     37 C         142.2160  140.2091  164.9609 C.ar    1  UNL1       -0.0040
     38 C         142.9472  140.4835  166.2416 C.ar    1  UNL1       -0.0003
     39 C         142.5416  141.6422  167.1034 C.ar    1  UNL1       -0.0000
     40 C         141.4048  142.5265  166.6845 C.ar    1  UNL1       -0.0003
     41 C         140.6735  142.2523  165.4039 C.ar    1  UNL1       -0.0040
@<TRIPOS>BOND
     1    27    28    1
     2    28    21    1
     3    21    22   ar
     4    22    23   ar
     5    23    24   ar
     6    24    19    1
     7    19    20    1
     8    19    17    1
     9     9    17    1
    10     9    10    1
    11    10    11    1
    12    11    12    1
    13    12     1    1
    14     1     2    2
    15     1     3   am
    16     3     4    1
    17     4     5    1
    18     5     6    1
    19     6    36    1
    20    36    37   ar
    21    37    38   ar
    22    38    39   ar
    23    39    40   ar
    24    40    41   ar
    25     6    29    1
    26    29    30   ar
    27    30    31   ar
    28    31    32   ar
    29    32    33    1
    30    32    34   ar
    31    34    35   ar
    32     6     7    1
    33     7     8    1
    34    12    13    1
    35    13    14    1
    36    13    15    1
    37    13    16    1
    38    24    25   ar
    39    25    26   ar
    40    26    21   ar
    41    16     9    1
    42     8     3    1
    43    41    36   ar
    44    35    29   ar
    45    17    18    1
