@<TRIPOS>MOLECULE
*****
 25 27 0 0 0
SMALL
GASTEIGER

@<TRIPOS>ATOM
      1 N         137.9171  140.5090  162.7883 N.ar    1  UNL1       -0.3165
      2 C         137.7101  139.5504  161.6533 C.ar    1  UNL1        0.0779
      3 C         138.5440  138.3320  161.9178 C.ar    1  UNL1        0.0392
      4 C         139.2663  138.5375  163.2163 C.ar    1  UNL1        0.0985
      5 N         140.2268  137.6733  163.9782 N.ar    1  UNL1       -0.2423
      6 C         140.7998  138.1547  165.2782 C.ar    1  UNL1        0.0989
      7 C         140.4124  139.5002  165.8162 C.ar    1  UNL1        0.0221
      8 C         139.4519  140.3644  165.0542 C.ar    1  UNL1        0.0203
      9 C         138.8789  139.8830  163.7542 C.ar    1  UNL1        0.0782
     10 C         140.9854  139.9815  167.1162 C.ar    1  UNL1        0.0207
     11 C         142.3441  139.5202  167.5535 C.ar    1  UNL1        0.0989
     12 N         142.9172  140.0015  168.8535 N.ar    1  UNL1       -0.2424
     13 C         142.1315  140.9442  169.7162 C.ar    1  UNL1        0.1027
     14 C         140.7728  141.4055  169.2788 C.ar    1  UNL1        0.0905
     15 C         140.1998  140.9241  167.9789 C.ar    1  UNL1        0.0070
     16 C         139.9872  142.3481  170.1415 C.3     1  UNL1        0.4200
     17 F         139.2015  143.2907  171.0042 F       1  UNL1       -0.1658
     18 F         138.8500  141.3704  170.1742 F       1  UNL1       -0.1658
     19 F         141.1243  143.3258  170.1088 F       1  UNL1       -0.1658
     20 C         137.2751  141.8570  162.9320 C.3     1  UNL1        0.1920
     21 C         139.0645  145.3849  162.6127 C.3     1  UNL1        0.1150
     22 N         138.4126  144.1757  163.2150 N.am    1  UNL1       -0.2744
     23 C         138.2465  144.0757  164.7024 C.3     1  UNL1        0.1150
     24 C         137.9270  143.0664  162.3298 C.2     1  UNL1        0.2488
     25 O         138.0931  143.1664  160.8424 O.2     1  UNL1       -0.2728
@<TRIPOS>BOND
     1    21    22    1
     2    22    23    1
     3    22    24   am
     4    24    25    2
     5    24    20    1
     6    20     1    1
     7     1     2   ar
     8     2     3   ar
     9     3     4   ar
    10     4     5   ar
    11     5     6   ar
    12     6     7   ar
    13     7    10    1
    14    10    11   ar
    15    11    12   ar
    16    12    13   ar
    17    13    14   ar
    18    14    16    1
    19    16    17    1
    20    16    18    1
    21    16    19    1
    22    14    15   ar
    23     7     8   ar
    24     8     9   ar
    25     9     1   ar
    26     9     4   ar
    27    15    10   ar
@<TRIPOS>MOLECULE
*****
 25 27 0 0 0
SMALL
GASTEIGER

@<TRIPOS>ATOM
      1 N         137.8463  141.3606  162.8514 N.ar    1  UNL1       -0.3165
      2 C         137.5989  140.4463  161.6883 C.ar    1  UNL1        0.0779
      3 C         137.9633  139.0531  162.1084 C.ar    1  UNL1        0.0392
      4 C         138.4358  139.1065  163.5310 C.ar    1  UNL1        0.0985
      5 N         138.9226  138.0408  164.4675 N.ar    1  UNL1       -0.2423
      6 C         139.3371  138.4012  165.8633 C.ar    1  UNL1        0.0989
      7 C         139.2648  139.8273  166.3226 C.ar    1  UNL1        0.0221
      8 C         138.7780  140.8931  165.3860 C.ar    1  UNL1        0.0203
      9 C         138.3635  140.5326  163.9902 C.ar    1  UNL1        0.0782
     10 C         139.6793  140.1877  167.7184 C.ar    1  UNL1        0.0207
     11 C         138.7881  139.8493  168.8764 C.ar    1  UNL1        0.0989
     12 N         139.2026  140.2096  170.2723 N.ar    1  UNL1       -0.2424
     13 C         140.5084  140.9084  170.5101 C.ar    1  UNL1        0.1027
     14 C         141.3997  141.2469  169.3520 C.ar    1  UNL1        0.0905
     15 C         140.9851  140.8865  167.9562 C.ar    1  UNL1        0.0070
     16 C         142.7055  141.9457  169.5897 C.3     1  UNL1        0.4200
     17 F         144.0113  142.6445  169.8275 F       1  UNL1       -0.1658
     18 F         143.3995  140.6188  169.6781 F       1  UNL1       -0.1658
     19 F         142.0115  143.2726  169.5013 F       1  UNL1       -0.1658
     20 C         137.6167  142.8428  162.8720 C.3     1  UNL1        0.1920
     21 C         140.3611  145.6722  162.4104 C.3     1  UNL1        0.1150
     22 N         139.3705  144.7507  163.0580 N.am    1  UNL1       -0.2744
     23 C         139.1427  144.8157  164.5392 C.3     1  UNL1        0.1150
     24 C         138.6075  143.7643  162.2244 C.2     1  UNL1        0.2488
     25 O         138.8352  143.6994  160.7432 O.2     1  UNL1       -0.2728
@<TRIPOS>BOND
     1    21    22    1
     2    22    23    1
     3    22    24   am
     4    24    25    2
     5    24    20    1
     6    20     1    1
     7     1     2   ar
     8     2     3   ar
     9     3     4   ar
    10     4     5   ar
    11     5     6   ar
    12     6     7   ar
    13     7    10    1
    14    10    11   ar
    15    11    12   ar
    16    12    13   ar
    17    13    14   ar
    18    14    16    1
    19    16    17    1
    20    16    18    1
    21    16    19    1
    22    14    15   ar
    23     7     8   ar
    24     8     9   ar
    25     9     1   ar
    26     9     4   ar
    27    15    10   ar
@<TRIPOS>MOLECULE
*****
 25 27 0 0 0
SMALL
GASTEIGER

@<TRIPOS>ATOM
      1 N         141.8025  143.8767  161.0183 N.ar    1  UNL1       -0.3165
      2 C         141.3027  144.9672  160.1177 C.ar    1  UNL1        0.0779
      3 C         140.0270  145.5004  160.6994 C.ar    1  UNL1        0.0392
      4 C         139.7384  144.7395  161.9595 C.ar    1  UNL1        0.0985
      5 N         138.6183  144.8307  162.9528 N.ar    1  UNL1       -0.2423
      6 C         138.5954  143.9184  164.1432 C.ar    1  UNL1        0.0989
      7 C         139.6926  142.9149  164.3403 C.ar    1  UNL1        0.0221
      8 C         140.8128  142.8236  163.3469 C.ar    1  UNL1        0.0203
      9 C         140.8357  143.7359  162.1565 C.ar    1  UNL1        0.0782
     10 C         139.6697  142.0025  165.5308 C.ar    1  UNL1        0.0207
     11 C         140.3972  142.3874  166.7848 C.ar    1  UNL1        0.0989
     12 N         140.3743  141.4751  167.9753 N.ar    1  UNL1       -0.2424
     13 C         139.6238  140.1779  167.9117 C.ar    1  UNL1        0.1027
     14 C         138.8963  139.7930  166.6576 C.ar    1  UNL1        0.0905
     15 C         138.9192  140.7053  165.4672 C.ar    1  UNL1        0.0070
     16 C         138.1458  138.4958  166.5940 C.3     1  UNL1        0.4200
     17 F         137.3953  137.1986  166.5304 F       1  UNL1       -0.1658
     18 F         137.4835  138.8149  167.9015 F       1  UNL1       -0.1658
     19 F         138.8081  138.1767  165.2865 F       1  UNL1       -0.1658
     20 C         143.0500  143.0687  160.8161 C.3     1  UNL1        0.1920
     21 C         145.7923  141.7640  163.3710 C.3     1  UNL1        0.1150
     22 N         144.7226  141.7678  162.3195 N.am    1  UNL1       -0.2744
     23 C         144.2557  140.4745  161.7199 C.3     1  UNL1        0.1150
     24 C         144.1198  143.0648  161.8676 C.2     1  UNL1        0.2488
     25 O         144.5866  144.3581  162.4673 O.2     1  UNL1       -0.2728
@<TRIPOS>BOND
     1    21    22    1
     2    22    23    1
     3    22    24   am
     4    24    25    2
     5    24    20    1
     6    20     1    1
     7     1     2   ar
     8     2     3   ar
     9     3     4   ar
    10     4     5   ar
    11     5     6   ar
    12     6     7   ar
    13     7    10    1
    14    10    11   ar
    15    11    12   ar
    16    12    13   ar
    17    13    14   ar
    18    14    16    1
    19    16    17    1
    20    16    18    1
    21    16    19    1
    22    14    15   ar
    23     7     8   ar
    24     8     9   ar
    25     9     1   ar
    26     9     4   ar
    27    15    10   ar
@<TRIPOS>MOLECULE
*****
 25 27 0 0 0
SMALL
GASTEIGER

@<TRIPOS>ATOM
      1 N         139.3843  139.9904  161.7855 N.ar    1  UNL1       -0.3165
      2 C         139.8889  139.5567  160.4411 C.ar    1  UNL1        0.0779
      3 C         141.2166  138.8871  160.6384 C.ar    1  UNL1        0.0392
      4 C         141.5325  138.9069  162.1046 C.ar    1  UNL1        0.0985
      5 N         142.7050  138.3922  162.8857 N.ar    1  UNL1       -0.2423
      6 C         142.7451  138.5594  164.3758 C.ar    1  UNL1        0.0989
      7 C         141.6126  139.2412  165.0848 C.ar    1  UNL1        0.0221
      8 C         140.4401  139.7560  164.3036 C.ar    1  UNL1        0.0203
      9 C         140.4001  139.5888  162.8136 C.ar    1  UNL1        0.0782
     10 C         141.6528  139.4084  166.5749 C.ar    1  UNL1        0.0207
     11 C         142.9346  139.1831  167.3207 C.ar    1  UNL1        0.0989
     12 N         142.9747  139.3502  168.8108 N.ar    1  UNL1       -0.2424
     13 C         141.7329  139.7427  169.5552 C.ar    1  UNL1        0.1027
     14 C         140.4511  139.9680  168.8094 C.ar    1  UNL1        0.0905
     15 C         140.4110  139.8008  167.3193 C.ar    1  UNL1        0.0070
     16 C         139.2093  140.3604  169.5537 C.3     1  UNL1        0.4200
     17 F         137.9676  140.7528  170.2981 F       1  UNL1       -0.1658
     18 F         140.0462  141.0755  170.5728 F       1  UNL1       -0.1658
     19 F         138.3725  139.6454  168.5347 F       1  UNL1       -0.1658
     20 C         138.0910  140.7009  162.0545 C.3     1  UNL1        0.1920
     21 C         137.8309  144.5153  163.1191 C.3     1  UNL1        0.1150
     22 N         137.8981  143.0196  163.2107 N.am    1  UNL1       -0.2744
     23 C         137.8396  142.3469  164.5501 C.3     1  UNL1        0.1150
     24 C         138.0238  142.1967  161.9629 C.2     1  UNL1        0.2488
     25 O         138.0823  142.8695  160.6235 O.2     1  UNL1       -0.2728
@<TRIPOS>BOND
     1    21    22    1
     2    22    23    1
     3    22    24   am
     4    24    25    2
     5    24    20    1
     6    20     1    1
     7     1     2   ar
     8     2     3   ar
     9     3     4   ar
    10     4     5   ar
    11     5     6   ar
    12     6     7   ar
    13     7    10    1
    14    10    11   ar
    15    11    12   ar
    16    12    13   ar
    17    13    14   ar
    18    14    16    1
    19    16    17    1
    20    16    18    1
    21    16    19    1
    22    14    15   ar
    23     7     8   ar
    24     8     9   ar
    25     9     1   ar
    26     9     4   ar
    27    15    10   ar
@<TRIPOS>MOLECULE
*****
 25 27 0 0 0
SMALL
GASTEIGER

@<TRIPOS>ATOM
      1 N         144.2356  139.9259  163.1058 N.ar    1  UNL1       -0.3165
      2 C         144.1284  138.9818  161.9451 C.ar    1  UNL1        0.0779
      3 C         142.9366  138.1000  162.1735 C.ar    1  UNL1        0.0392
      4 C         142.3072  138.4991  163.4753 C.ar    1  UNL1        0.0985
      5 N         141.1069  137.9808  164.2104 N.ar    1  UNL1       -0.2423
      6 C         140.7094  138.5910  165.5218 C.ar    1  UNL1        0.0989
      7 C         141.5122  139.7195  166.0980 C.ar    1  UNL1        0.0221
      8 C         142.7126  140.2378  165.3628 C.ar    1  UNL1        0.0203
      9 C         143.1101  139.6276  164.0515 C.ar    1  UNL1        0.0782
     10 C         141.1146  140.3297  167.4094 C.ar    1  UNL1        0.0207
     11 C         139.7750  140.0163  168.0069 C.ar    1  UNL1        0.0989
     12 N         139.3774  140.6265  169.3183 N.ar    1  UNL1       -0.2424
     13 C         140.3196  141.5500  170.0321 C.ar    1  UNL1        0.1027
     14 C         141.6593  141.8633  169.4345 C.ar    1  UNL1        0.0905
     15 C         142.0568  141.2531  168.1232 C.ar    1  UNL1        0.0070
     16 C         142.6015  142.7868  170.1483 C.3     1  UNL1        0.4200
     17 F         143.5436  143.7102  170.8621 F       1  UNL1       -0.1658
     18 F         141.5554  143.8617  170.1384 F       1  UNL1       -0.1658
     19 F         143.6476  141.7118  170.1583 F       1  UNL1       -0.1658
     20 C         145.2842  140.9827  163.2887 C.3     1  UNL1        0.1920
     21 C         144.0386  144.7147  162.7683 C.3     1  UNL1        0.1150
     22 N         144.4424  143.3010  162.4716 N.am    1  UNL1       -0.2744
     23 C         144.4084  142.7915  161.0612 C.3     1  UNL1        0.1150
     24 C         144.8803  142.3967  163.5854 C.2     1  UNL1        0.2488
     25 O         144.9143  142.9062  164.9958 O.2     1  UNL1       -0.2728
@<TRIPOS>BOND
     1    21    22    1
     2    22    23    1
     3    22    24   am
     4    24    25    2
     5    24    20    1
     6    20     1    1
     7     1     2   ar
     8     2     3   ar
     9     3     4   ar
    10     4     5   ar
    11     5     6   ar
    12     6     7   ar
    13     7    10    1
    14    10    11   ar
    15    11    12   ar
    16    12    13   ar
    17    13    14   ar
    18    14    16    1
    19    16    17    1
    20    16    18    1
    21    16    19    1
    22    14    15   ar
    23     7     8   ar
    24     8     9   ar
    25     9     1   ar
    26     9     4   ar
    27    15    10   ar
@<TRIPOS>MOLECULE
*****
 25 27 0 0 0
SMALL
GASTEIGER

@<TRIPOS>ATOM
      1 N         140.4467  139.9266  163.1417 N.ar    1  UNL1       -0.3165
      2 C         139.5835  139.0847  162.2495 C.ar    1  UNL1        0.0779
      3 C         138.5556  138.4058  163.1053 C.ar    1  UNL1        0.0392
      4 C         138.7836  138.8280  164.5265 C.ar    1  UNL1        0.0985
      5 N         138.0779  138.4780  165.8030 N.ar    1  UNL1       -0.2423
      6 C         138.5411  139.0679  167.1020 C.ar    1  UNL1        0.0989
      7 C         139.7098  140.0078  167.1245 C.ar    1  UNL1        0.0221
      8 C         140.4155  140.3578  165.8480 C.ar    1  UNL1        0.0203
      9 C         139.9524  139.7679  164.5490 C.ar    1  UNL1        0.0782
     10 C         140.1730  140.5978  168.4236 C.ar    1  UNL1        0.0207
     11 C         139.2676  140.5822  169.6194 C.ar    1  UNL1        0.0989
     12 N         139.7307  141.1722  170.9185 N.ar    1  UNL1       -0.2424
     13 C         141.0992  141.7776  171.0217 C.ar    1  UNL1        0.1027
     14 C         142.0046  141.7931  169.8258 C.ar    1  UNL1        0.0905
     15 C         141.5415  141.2032  168.5268 C.ar    1  UNL1        0.0070
     16 C         143.3731  142.3986  169.9290 C.3     1  UNL1        0.4200
     17 F         144.7416  143.0040  170.0322 F       1  UNL1       -0.1658
     18 F         142.9863  143.0523  171.2225 F       1  UNL1       -0.1658
     19 F         143.7599  141.7448  168.6356 F       1  UNL1       -0.1658
     20 C         141.6015  140.7777  162.7036 C.3     1  UNL1        0.1920
     21 C         145.1063  139.6931  164.2170 C.3     1  UNL1        0.1150
     22 N         143.8431  139.6692  163.4085 N.am    1  UNL1       -0.2744
     23 C         143.5582  138.5130  162.4964 C.3     1  UNL1        0.1150
     24 C         142.8649  140.8016  163.5122 C.2     1  UNL1        0.2488
     25 O         143.1498  141.9578  164.4243 O.2     1  UNL1       -0.2728
@<TRIPOS>BOND
     1    21    22    1
     2    22    23    1
     3    22    24   am
     4    24    25    2
     5    24    20    1
     6    20     1    1
     7     1     2   ar
     8     2     3   ar
     9     3     4   ar
    10     4     5   ar
    11     5     6   ar
    12     6     7   ar
    13     7    10    1
    14    10    11   ar
    15    11    12   ar
    16    12    13   ar
    17    13    14   ar
    18    14    16    1
    19    16    17    1
    20    16    18    1
    21    16    19    1
    22    14    15   ar
    23     7     8   ar
    24     8     9   ar
    25     9     1   ar
    26     9     4   ar
    27    15    10   ar
@<TRIPOS>MOLECULE
*****
 25 27 0 0 0
SMALL
GASTEIGER

@<TRIPOS>ATOM
      1 N         139.6879  143.2621  162.7547 N.ar    1  UNL1       -0.3165
      2 C         138.8390  142.9066  161.5702 C.ar    1  UNL1        0.0779
      3 C         138.0354  141.6906  161.9242 C.ar    1  UNL1        0.0392
      4 C         138.3876  141.2944  163.3274 C.ar    1  UNL1        0.0985
      5 N         137.9103  140.1748  164.2041 N.ar    1  UNL1       -0.2423
      6 C         138.4544  140.0265  165.5940 C.ar    1  UNL1        0.0989
      7 C         139.4757  140.9978  166.1073 C.ar    1  UNL1        0.0221
      8 C         139.9530  142.1174  165.2306 C.ar    1  UNL1        0.0203
      9 C         139.4090  142.2657  163.8407 C.ar    1  UNL1        0.0782
     10 C         140.0198  140.8494  167.4973 C.ar    1  UNL1        0.0207
     11 C         139.2962  139.9992  168.4991 C.ar    1  UNL1        0.0989
     12 N         139.8403  139.8508  169.8891 N.ar    1  UNL1       -0.2424
     13 C         141.1079  140.5526  170.2773 C.ar    1  UNL1        0.1027
     14 C         141.8314  141.4029  169.2754 C.ar    1  UNL1        0.0905
     15 C         141.2873  141.5512  167.8855 C.ar    1  UNL1        0.0070
     16 C         143.0990  142.1048  169.6635 C.3     1  UNL1        0.4200
     17 F         144.3665  142.8066  170.0517 F       1  UNL1       -0.1658
     18 F         142.6137  142.1980  171.0798 F       1  UNL1       -0.1658
     19 F         143.5842  142.0116  168.2473 F       1  UNL1       -0.1658
     20 C         140.6474  144.4121  162.8385 C.3     1  UNL1        0.1920
     21 C         144.5209  143.7158  162.3274 C.3     1  UNL1        0.1150
     22 N         143.1723  143.8154  162.9765 N.am    1  UNL1       -0.2744
     23 C         142.9999  143.4181  164.4126 C.3     1  UNL1        0.1150
     24 C         141.9961  144.3124  162.1894 C.2     1  UNL1        0.2488
     25 O         142.1685  144.7098  160.7533 O.2     1  UNL1       -0.2728
@<TRIPOS>BOND
     1    21    22    1
     2    22    23    1
     3    22    24   am
     4    24    25    2
     5    24    20    1
     6    20     1    1
     7     1     2   ar
     8     2     3   ar
     9     3     4   ar
    10     4     5   ar
    11     5     6   ar
    12     6     7   ar
    13     7    10    1
    14    10    11   ar
    15    11    12   ar
    16    12    13   ar
    17    13    14   ar
    18    14    16    1
    19    16    17    1
    20    16    18    1
    21    16    19    1
    22    14    15   ar
    23     7     8   ar
    24     8     9   ar
    25     9     1   ar
    26     9     4   ar
    27    15    10   ar
@<TRIPOS>MOLECULE
*****
 25 27 0 0 0
SMALL
GASTEIGER

@<TRIPOS>ATOM
      1 N         141.8311  144.0133  161.3711 N.ar    1  UNL1       -0.3165
      2 C         141.3094  145.1058  160.4855 C.ar    1  UNL1        0.0779
      3 C         139.9791  145.5429  161.0234 C.ar    1  UNL1        0.0392
      4 C         139.6787  144.7205  162.2414 C.ar    1  UNL1        0.0985
      5 N         138.5108  144.7104  163.1826 N.ar    1  UNL1       -0.2423
      6 C         138.4876  143.7550  164.3387 C.ar    1  UNL1        0.0989
      7 C         139.6322  142.8097  164.5536 C.ar    1  UNL1        0.0221
      8 C         140.8001  142.8198  163.6124 C.ar    1  UNL1        0.0203
      9 C         140.8234  143.7752  162.4563 C.ar    1  UNL1        0.0782
     10 C         139.6089  141.8542  165.7097 C.ar    1  UNL1        0.0207
     11 C         140.2815  142.2208  166.9993 C.ar    1  UNL1        0.0989
     12 N         140.2582  141.2653  168.1555 N.ar    1  UNL1       -0.2424
     13 C         139.5623  139.9433  168.0219 C.ar    1  UNL1        0.1027
     14 C         138.8897  139.5767  166.7322 C.ar    1  UNL1        0.0905
     15 C         138.9130  140.5321  165.5761 C.ar    1  UNL1        0.0070
     16 C         138.1938  138.2546  166.5986 C.3     1  UNL1        0.4200
     17 F         137.4979  136.9325  166.4651 F       1  UNL1       -0.1658
     18 F         137.2464  138.6425  167.6950 F       1  UNL1       -0.1658
     19 F         139.1411  137.8667  165.5022 F       1  UNL1       -0.1658
     20 C         143.1323  143.2865  161.2013 C.3     1  UNL1        0.1920
     21 C         144.0820  139.4365  161.0428 C.3     1  UNL1        0.1150
     22 N         144.0769  140.8793  161.4528 N.am    1  UNL1       -0.2744
     23 C         145.0113  141.3579  162.5242 C.3     1  UNL1        0.1150
     24 C         143.1374  141.8436  160.7913 C.2     1  UNL1        0.2488
     25 O         142.2031  141.3650  159.7199 O.2     1  UNL1       -0.2728
@<TRIPOS>BOND
     1    21    22    1
     2    22    23    1
     3    22    24   am
     4    24    25    2
     5    24    20    1
     6    20     1    1
     7     1     2   ar
     8     2     3   ar
     9     3     4   ar
    10     4     5   ar
    11     5     6   ar
    12     6     7   ar
    13     7    10    1
    14    10    11   ar
    15    11    12   ar
    16    12    13   ar
    17    13    14   ar
    18    14    16    1
    19    16    17    1
    20    16    18    1
    21    16    19    1
    22    14    15   ar
    23     7     8   ar
    24     8     9   ar
    25     9     1   ar
    26     9     4   ar
    27    15    10   ar
@<TRIPOS>MOLECULE
*****
 25 27 0 0 0
SMALL
GASTEIGER

@<TRIPOS>ATOM
      1 N         141.5692  144.2957  161.7397 N.ar    1  UNL1       -0.3165
      2 C         140.7207  145.3200  161.0462 C.ar    1  UNL1        0.0779
      3 C         139.6167  145.7169  161.9809 C.ar    1  UNL1        0.0392
      4 C         139.7829  144.9380  163.2520 C.ar    1  UNL1        0.0985
      5 N         138.9913  144.9151  164.5259 N.ar    1  UNL1       -0.2423
      6 C         139.4065  144.0138  165.6507 C.ar    1  UNL1        0.0989
      7 C         140.6133  143.1355  165.5016 C.ar    1  UNL1        0.0221
      8 C         141.4049  143.1584  164.2277 C.ar    1  UNL1        0.0203
      9 C         140.9897  144.0597  163.1029 C.ar    1  UNL1        0.0782
     10 C         141.0285  142.2342  166.6265 C.ar    1  UNL1        0.0207
     11 C         140.6169  142.5523  168.0334 C.ar    1  UNL1        0.0989
     12 N         141.0321  141.6510  169.1583 N.ar    1  UNL1       -0.2424
     13 C         141.8589  140.4316  168.8763 C.ar    1  UNL1        0.1027
     14 C         142.2704  140.1135  167.4693 C.ar    1  UNL1        0.0905
     15 C         141.8553  141.0148  166.3445 C.ar    1  UNL1        0.0070
     16 C         143.0972  138.8941  167.1872 C.3     1  UNL1        0.4200
     17 F         143.9239  137.6747  166.9051 F       1  UNL1       -0.1658
     18 F         143.0048  138.4975  168.6309 F       1  UNL1       -0.1658
     19 F         143.1896  139.2907  165.7435 F       1  UNL1       -0.1658
     20 C         142.7841  143.6253  161.1700 C.3     1  UNL1        0.1920
     21 C         144.0461  139.9176  161.8108 C.3     1  UNL1        0.1150
     22 N         143.9663  141.4148  161.8531 N.am    1  UNL1       -0.2744
     23 C         144.9889  142.1990  162.6208 C.3     1  UNL1        0.1150
     24 C         142.8639  142.1279  161.1277 C.2     1  UNL1        0.2488
     25 O         141.8413  141.3437  160.3599 O.2     1  UNL1       -0.2728
@<TRIPOS>BOND
     1    21    22    1
     2    22    23    1
     3    22    24   am
     4    24    25    2
     5    24    20    1
     6    20     1    1
     7     1     2   ar
     8     2     3   ar
     9     3     4   ar
    10     4     5   ar
    11     5     6   ar
    12     6     7   ar
    13     7    10    1
    14    10    11   ar
    15    11    12   ar
    16    12    13   ar
    17    13    14   ar
    18    14    16    1
    19    16    17    1
    20    16    18    1
    21    16    19    1
    22    14    15   ar
    23     7     8   ar
    24     8     9   ar
    25     9     1   ar
    26     9     4   ar
    27    15    10   ar
