@<TRIPOS>MOLECULE
*****
 43 48 0 0 0
SMALL
GASTEIGER

@<TRIPOS>ATOM
      1 N         139.1348  142.4504  160.4201 N.am    1  UNL1       -0.1907
      2 C         138.4604  141.5485  159.4292 C.2     1  UNL1        0.3220
      3 O         137.8260  140.2235  159.7323 O.2     1  UNL1       -0.2512
      4 N         138.5318  142.2043  158.0821 N.am    1  UNL1       -0.2215
      5 C         139.2504  143.5115  158.2403 C.3     1  UNL1        0.1391
      6 C         139.9815  144.7838  158.5512 C.3     1  UNL1        0.0449
      7 C         140.2757  145.7663  157.4566 C.3     1  UNL1        0.0746
      8 N         139.8388  145.4765  156.0512 N.3     1  UNL1       -0.2676
      9 C         139.1076  144.2042  155.7404 C.3     1  UNL1        0.0746
     10 C         138.8134  143.2217  156.8349 C.3     1  UNL1        0.0449
     11 C         139.6230  143.6636  159.6853 C.2     1  UNL1        0.2529
     12 O         140.3553  144.8249  160.2894 O.2     1  UNL1       -0.2724
     13 C         137.9814  141.6502  156.8015 C.ar    1  UNL1        0.1526
     14 N         136.6481  142.1148  156.2950 N.ar    1  UNL1       -0.2259
     15 C         136.0977  141.5607  155.0144 C.ar    1  UNL1        0.1209
     16 C         136.8806  140.5420  154.2401 C.ar    1  UNL1        0.1192
     17 N         138.2138  140.0774  154.7466 N.ar    1  UNL1       -0.2437
     18 C         138.7642  140.6315  156.0272 C.ar    1  UNL1        0.0913
     19 C         140.0975  140.1669  156.5337 C.3     1  UNL1        0.0551
     20 C         139.6099  141.6560  164.8239 C.ar    1  UNL1       -0.0002
     21 C         138.3649  142.3170  164.3110 C.ar    1  UNL1        0.0013
     22 C         138.2065  142.5818  162.8431 C.ar    1  UNL1        0.0154
     23 C         139.2932  142.1856  161.8880 C.ar    1  UNL1        0.0622
     24 C         140.5381  141.5246  162.4009 C.ar    1  UNL1        0.0154
     25 C         140.6965  141.2598  163.8688 C.ar    1  UNL1        0.0013
     26 C         138.5199  139.1291  166.0185 C.3     1  UNL1        0.0310
     27 C         139.2233  140.1278  166.8890 C.ar    1  UNL1       -0.0218
     28 C         139.3817  139.8629  168.3570 C.ar    1  UNL1       -0.0031
     29 C         140.0851  140.8616  169.2277 C.ar    1  UNL1        0.0137
     30 C         140.6301  142.1250  168.6303 C.ar    1  UNL1        0.0011
     31 C         140.4717  142.3898  167.1624 C.ar    1  UNL1       -0.0003
     32 C         139.7683  141.3912  166.2918 C.ar    1  UNL1       -0.0040
     33 C         140.2434  140.5968  170.6956 C.2     1  UNL1        0.0729
     34 O         139.4925  139.4692  171.3395 O.co2   1  UNL1       -0.5446
     35 O         141.1528  141.4595  171.5195 O.co2   1  UNL1       -0.5446
     36 C         140.1330  146.4591  154.9567 C.3     1  UNL1        0.1183
     37 C         139.6541  147.8759  155.0719 C.ar    1  UNL1        0.0712
     38 N         138.8126  148.2902  156.2425 N.ar    1  UNL1       -0.2471
     39 C         138.3337  149.7071  156.3577 C.ar    1  UNL1        0.0985
     40 C         138.6962  150.7095  155.3024 C.ar    1  UNL1        0.0203
     41 C         139.5377  150.2952  154.1319 C.ar    1  UNL1       -0.0015
     42 C         140.0166  148.8784  154.0166 C.ar    1  UNL1       -0.0069
     43 C         140.8581  148.4640  152.8460 C.3     1  UNL1        0.0323
@<TRIPOS>UNITY_ATOM_ATTR
34 1
charge -1
@<TRIPOS>BOND
     1    26    27    1
     2    27    28   ar
     3    28    29   ar
     4    29    33    1
     5    33    34   ar
     6    33    35   ar
     7    29    30   ar
     8    30    31   ar
     9    31    32   ar
    10    32    20    1
    11    20    21   ar
    12    21    22   ar
    13    22    23   ar
    14    23     1    1
    15     1     2   am
    16     2     3    2
    17     2     4   am
    18     4    13    1
    19    13    14   ar
    20    14    15   ar
    21    15    16   ar
    22    16    17   ar
    23    17    18   ar
    24    18    19    1
    25     4     5    1
    26     5     6    1
    27     6     7    1
    28     7     8    1
    29     8    36    1
    30    36    37    1
    31    37    38   ar
    32    38    39   ar
    33    39    40   ar
    34    40    41   ar
    35    41    42   ar
    36    42    43    1
    37     8     9    1
    38     9    10    1
    39     5    11    1
    40    11    12    2
    41    23    24   ar
    42    24    25   ar
    43    32    27   ar
    44    25    20   ar
    45    11     1   am
    46    18    13   ar
    47    10     5    1
    48    42    37   ar
@<TRIPOS>MOLECULE
*****
 43 48 0 0 0
SMALL
GASTEIGER

@<TRIPOS>ATOM
      1 N         142.8911  140.5460  160.7756 N.am    1  UNL1       -0.1907
      2 C         143.4663  141.5869  159.8614 C.2     1  UNL1        0.3220
      3 O         143.7672  143.0106  160.2251 O.2     1  UNL1       -0.2512
      4 N         143.6877  140.9540  158.5196 N.am    1  UNL1       -0.2215
      5 C         143.2494  139.5220  158.6044 C.3     1  UNL1        0.1391
      6 C         142.7742  138.1187  158.8392 C.3     1  UNL1        0.0449
      7 C         142.8202  137.1152  157.7254 C.3     1  UNL1        0.0746
      8 N         143.3413  137.5148  156.3768 N.3     1  UNL1       -0.2676
      9 C         143.8164  138.9180  156.1420 C.3     1  UNL1        0.0746
     10 C         143.7705  139.9216  157.2558 C.3     1  UNL1        0.0449
     11 C         142.7570  139.2698  159.9987 C.2     1  UNL1        0.2529
     12 O         142.2242  137.9697  160.5239 O.2     1  UNL1       -0.2724
     13 C         144.2490  141.6338  157.3059 C.ar    1  UNL1        0.1526
     14 N         145.7043  141.4911  156.9720 N.ar    1  UNL1       -0.2259
     15 C         146.2655  142.1709  155.7584 C.ar    1  UNL1        0.1209
     16 C         145.3713  142.9934  154.8785 C.ar    1  UNL1        0.1192
     17 N         143.9159  143.1360  155.2124 N.ar    1  UNL1       -0.2437
     18 C         143.3548  142.4562  156.4261 C.ar    1  UNL1        0.0913
     19 C         141.8994  142.5989  156.7600 C.3     1  UNL1        0.0551
     20 C         141.7653  141.1464  165.0909 C.ar    1  UNL1       -0.0002
     21 C         141.0813  141.9428  164.0195 C.ar    1  UNL1        0.0013
     22 C         141.4565  141.7427  162.5811 C.ar    1  UNL1        0.0154
     23 C         142.5158  140.7461  162.2140 C.ar    1  UNL1        0.0622
     24 C         143.1998  139.9498  163.2853 C.ar    1  UNL1        0.0154
     25 C         142.8245  140.1499  164.7237 C.ar    1  UNL1        0.0013
     26 C         139.4568  139.6313  166.2636 C.3     1  UNL1        0.0310
     27 C         140.2358  140.5890  167.1156 C.ar    1  UNL1       -0.0218
     28 C         139.8605  140.7891  168.5541 C.ar    1  UNL1       -0.0031
     29 C         140.6395  141.7468  169.4062 C.ar    1  UNL1        0.0137
     30 C         141.7938  142.5044  168.8198 C.ar    1  UNL1        0.0011
     31 C         142.1690  142.3042  167.3814 C.ar    1  UNL1       -0.0003
     32 C         141.3900  141.3465  166.5293 C.ar    1  UNL1       -0.0040
     33 C         140.2642  141.9469  170.8447 C.2     1  UNL1        0.0729
     34 O         140.7369  140.9754  171.8852 O.co2   1  UNL1       -0.5446
     35 O         139.4163  143.1186  171.2425 O.co2   1  UNL1       -0.5446
     36 C         143.3872  136.5111  155.2629 C.3     1  UNL1        0.1183
     37 C         143.0267  135.0794  155.5281 C.ar    1  UNL1        0.0712
     38 N         143.9829  134.1894  156.2654 N.ar    1  UNL1       -0.2471
     39 C         143.6224  132.7577  156.5305 C.ar    1  UNL1        0.0985
     40 C         142.3057  132.2160  156.0584 C.ar    1  UNL1        0.0203
     41 C         141.3495  133.1060  155.3211 C.ar    1  UNL1       -0.0015
     42 C         141.7100  134.5377  155.0559 C.ar    1  UNL1       -0.0069
     43 C         140.7539  135.4277  154.3186 C.3     1  UNL1        0.0323
@<TRIPOS>UNITY_ATOM_ATTR
34 1
charge -1
@<TRIPOS>BOND
     1    26    27    1
     2    27    28   ar
     3    28    29   ar
     4    29    33    1
     5    33    34   ar
     6    33    35   ar
     7    29    30   ar
     8    30    31   ar
     9    31    32   ar
    10    32    20    1
    11    20    21   ar
    12    21    22   ar
    13    22    23   ar
    14    23     1    1
    15     1     2   am
    16     2     3    2
    17     2     4   am
    18     4    13    1
    19    13    14   ar
    20    14    15   ar
    21    15    16   ar
    22    16    17   ar
    23    17    18   ar
    24    18    19    1
    25     4     5    1
    26     5     6    1
    27     6     7    1
    28     7     8    1
    29     8    36    1
    30    36    37    1
    31    37    38   ar
    32    38    39   ar
    33    39    40   ar
    34    40    41   ar
    35    41    42   ar
    36    42    43    1
    37     8     9    1
    38     9    10    1
    39     5    11    1
    40    11    12    2
    41    23    24   ar
    42    24    25   ar
    43    32    27   ar
    44    25    20   ar
    45    11     1   am
    46    18    13   ar
    47    10     5    1
    48    42    37   ar
@<TRIPOS>MOLECULE
*****
 43 48 0 0 0
SMALL
GASTEIGER

@<TRIPOS>ATOM
      1 N         142.1081  139.6349  160.8231 N.am    1  UNL1       -0.1907
      2 C         141.3836  138.5922  160.0243 C.2     1  UNL1        0.3220
      3 O         140.2536  137.7351  160.5123 O.2     1  UNL1       -0.2512
      4 N         141.9877  138.5572  158.6517 N.am    1  UNL1       -0.2215
      5 C         143.0855  139.5783  158.6022 C.3     1  UNL1        0.1391
      6 C         144.1481  140.6322  158.7022 C.3     1  UNL1        0.0449
      7 C         145.0186  140.9341  157.5185 C.3     1  UNL1        0.0746
      8 N         144.8265  140.1821  156.2349 N.3     1  UNL1       -0.2676
      9 C         143.7639  139.1282  156.1350 C.3     1  UNL1        0.0746
     10 C         142.8934  138.8263  157.3186 C.3     1  UNL1        0.0449
     11 C         143.1599  140.2443  159.9442 C.2     1  UNL1        0.2529
     12 O         144.1179  141.3292  160.3381 O.2     1  UNL1       -0.2724
     13 C         141.5677  137.6589  157.5263 C.ar    1  UNL1        0.1526
     14 N         142.3802  136.4426  157.1943 N.ar    1  UNL1       -0.2259
     15 C         141.9602  135.5443  156.0688 C.ar    1  UNL1        0.1209
     16 C         140.7277  135.8625  155.2752 C.ar    1  UNL1        0.1192
     17 N         139.9152  137.0788  155.6072 N.ar    1  UNL1       -0.2437
     18 C         140.3352  137.9771  156.7327 C.ar    1  UNL1        0.0913
     19 C         139.5227  139.1935  157.0646 C.3     1  UNL1        0.0551
     20 C         141.2728  140.7406  165.1044 C.ar    1  UNL1       -0.0002
     21 C         142.2438  139.6415  164.7894 C.ar    1  UNL1        0.0013
     22 C         142.5223  139.2730  163.3623 C.ar    1  UNL1        0.0154
     23 C         141.8296  140.0034  162.2502 C.ar    1  UNL1        0.0622
     24 C         140.8586  141.1024  162.5652 C.ar    1  UNL1        0.0154
     25 C         140.5802  141.4709  163.9923 C.ar    1  UNL1        0.0013
     26 C         139.0898  139.3439  166.6158 C.3     1  UNL1        0.0310
     27 C         139.9029  140.4108  167.2871 C.ar    1  UNL1       -0.0218
     28 C         139.6244  140.7793  168.7143 C.ar    1  UNL1       -0.0031
     29 C         140.4374  141.8462  169.3857 C.ar    1  UNL1        0.0137
     30 C         141.5289  142.5446  168.6300 C.ar    1  UNL1        0.0011
     31 C         141.8073  142.1760  167.2029 C.ar    1  UNL1       -0.0003
     32 C         140.9943  141.1091  166.5315 C.ar    1  UNL1       -0.0040
     33 C         140.1589  142.2148  170.8128 C.2     1  UNL1        0.0729
     34 O         139.2752  143.3856  171.1263 O.co2   1  UNL1       -0.5446
     35 O         140.7642  141.4126  171.9264 O.co2   1  UNL1       -0.5446
     36 C         145.6971  140.4841  155.0513 C.3     1  UNL1        0.1183
     37 C         145.8492  141.8977  154.5733 C.ar    1  UNL1        0.0712
     38 N         144.6915  142.5998  153.9276 N.ar    1  UNL1       -0.2471
     39 C         144.8437  144.0135  153.4497 C.ar    1  UNL1        0.0985
     40 C         146.1535  144.7251  153.6175 C.ar    1  UNL1        0.0203
     41 C         147.3111  144.0230  154.2632 C.ar    1  UNL1       -0.0015
     42 C         147.1590  142.6094  154.7411 C.ar    1  UNL1       -0.0069
     43 C         148.3166  141.9073  155.3869 C.3     1  UNL1        0.0323
@<TRIPOS>UNITY_ATOM_ATTR
34 1
charge -1
@<TRIPOS>BOND
     1    26    27    1
     2    27    28   ar
     3    28    29   ar
     4    29    33    1
     5    33    34   ar
     6    33    35   ar
     7    29    30   ar
     8    30    31   ar
     9    31    32   ar
    10    32    20    1
    11    20    21   ar
    12    21    22   ar
    13    22    23   ar
    14    23     1    1
    15     1     2   am
    16     2     3    2
    17     2     4   am
    18     4    13    1
    19    13    14   ar
    20    14    15   ar
    21    15    16   ar
    22    16    17   ar
    23    17    18   ar
    24    18    19    1
    25     4     5    1
    26     5     6    1
    27     6     7    1
    28     7     8    1
    29     8    36    1
    30    36    37    1
    31    37    38   ar
    32    38    39   ar
    33    39    40   ar
    34    40    41   ar
    35    41    42   ar
    36    42    43    1
    37     8     9    1
    38     9    10    1
    39     5    11    1
    40    11    12    2
    41    23    24   ar
    42    24    25   ar
    43    32    27   ar
    44    25    20   ar
    45    11     1   am
    46    18    13   ar
    47    10     5    1
    48    42    37   ar
@<TRIPOS>MOLECULE
*****
 43 48 0 0 0
SMALL
GASTEIGER

@<TRIPOS>ATOM
      1 N         139.6663  140.9209  160.7915 N.am    1  UNL1       -0.1907
      2 C         138.6007  141.6223  160.0025 C.2     1  UNL1        0.3220
      3 O         137.7251  142.7348  160.4979 O.2     1  UNL1       -0.2512
      4 N         138.5645  141.0159  158.6310 N.am    1  UNL1       -0.2215
      5 C         139.6077  139.9396  158.5723 C.3     1  UNL1        0.1391
      6 C         140.6846  138.8994  158.6628 C.3     1  UNL1        0.0449
      7 C         140.9927  138.0339  157.4771 C.3     1  UNL1        0.0746
      8 N         140.2240  138.2086  156.2010 N.3     1  UNL1       -0.2676
      9 C         139.1471  139.2488  156.1105 C.3     1  UNL1        0.0746
     10 C         138.8390  140.1143  157.2962 C.3     1  UNL1        0.0449
     11 C         140.2887  139.8809  159.9076 C.2     1  UNL1        0.2529
     12 O         141.3973  138.9463  160.2916 O.2     1  UNL1       -0.2724
     13 C         137.6463  141.4155  157.5142 C.ar    1  UNL1        0.1526
     14 N         136.4460  140.5753  157.1930 N.ar    1  UNL1       -0.2259
     15 C         135.5278  140.9750  156.0762 C.ar    1  UNL1        0.1209
     16 C         135.8100  142.2149  155.2805 C.ar    1  UNL1        0.1192
     17 N         137.0103  143.0551  155.6017 N.ar    1  UNL1       -0.2437
     18 C         137.9285  142.6554  156.7185 C.ar    1  UNL1        0.0913
     19 C         139.1288  143.4956  157.0397 C.3     1  UNL1        0.0551
     20 C         140.7974  141.7847  165.0604 C.ar    1  UNL1       -0.0002
     21 C         141.2091  142.7286  163.9698 C.ar    1  UNL1        0.0013
     22 C         140.8321  142.4407  162.5468 C.ar    1  UNL1        0.0154
     23 C         140.0433  141.2088  162.2145 C.ar    1  UNL1        0.0622
     24 C         139.6316  140.2650  163.3051 C.ar    1  UNL1        0.0154
     25 C         140.0087  140.5530  164.7281 C.ar    1  UNL1        0.0013
     26 C         143.3898  140.7534  166.1635 C.3     1  UNL1        0.0310
     27 C         142.4706  141.5570  167.0349 C.ar    1  UNL1       -0.0218
     28 C         142.8477  141.8450  168.4580 C.ar    1  UNL1       -0.0031
     29 C         141.9286  142.6485  169.3295 C.ar    1  UNL1        0.0137
     30 C         140.6324  143.1642  168.7779 C.ar    1  UNL1        0.0011
     31 C         140.2553  142.8762  167.3550 C.ar    1  UNL1       -0.0003
     32 C         141.1744  142.0727  166.4834 C.ar    1  UNL1       -0.0040
     33 C         142.3056  142.9365  170.7525 C.2     1  UNL1        0.0729
     34 O         141.6412  142.1889  171.8703 O.co2   1  UNL1       -0.5446
     35 O         143.3471  143.9720  171.0576 O.co2   1  UNL1       -0.5446
     36 C         140.5322  137.3430  155.0153 C.3     1  UNL1        0.1183
     37 C         141.4747  136.1847  155.1569 C.ar    1  UNL1        0.0712
     38 N         140.9360  134.8014  155.3718 N.ar    1  UNL1       -0.2471
     39 C         141.8786  133.6431  155.5135 C.ar    1  UNL1        0.0985
     40 C         143.3597  133.8682  155.4403 C.ar    1  UNL1        0.0203
     41 C         143.8984  135.2516  155.2255 C.ar    1  UNL1       -0.0015
     42 C         142.9559  136.4098  155.0838 C.ar    1  UNL1       -0.0069
     43 C         143.4946  137.7932  154.8689 C.3     1  UNL1        0.0323
@<TRIPOS>UNITY_ATOM_ATTR
34 1
charge -1
@<TRIPOS>BOND
     1    26    27    1
     2    27    28   ar
     3    28    29   ar
     4    29    33    1
     5    33    34   ar
     6    33    35   ar
     7    29    30   ar
     8    30    31   ar
     9    31    32   ar
    10    32    20    1
    11    20    21   ar
    12    21    22   ar
    13    22    23   ar
    14    23     1    1
    15     1     2   am
    16     2     3    2
    17     2     4   am
    18     4    13    1
    19    13    14   ar
    20    14    15   ar
    21    15    16   ar
    22    16    17   ar
    23    17    18   ar
    24    18    19    1
    25     4     5    1
    26     5     6    1
    27     6     7    1
    28     7     8    1
    29     8    36    1
    30    36    37    1
    31    37    38   ar
    32    38    39   ar
    33    39    40   ar
    34    40    41   ar
    35    41    42   ar
    36    42    43    1
    37     8     9    1
    38     9    10    1
    39     5    11    1
    40    11    12    2
    41    23    24   ar
    42    24    25   ar
    43    32    27   ar
    44    25    20   ar
    45    11     1   am
    46    18    13   ar
    47    10     5    1
    48    42    37   ar
@<TRIPOS>MOLECULE
*****
 43 48 0 0 0
SMALL
GASTEIGER

@<TRIPOS>ATOM
      1 N         139.3968  142.9719  156.9282 N.am    1  UNL1       -0.1907
      2 C         139.8314  141.7945  156.1067 C.2     1  UNL1        0.3220
      3 O         140.2938  141.8371  154.6805 O.2     1  UNL1       -0.2512
      4 N         139.7224  140.5670  156.9619 N.am    1  UNL1       -0.2215
      5 C         139.2204  140.9858  158.3121 C.3     1  UNL1        0.1391
      6 C         138.7162  141.5514  159.6066 C.3     1  UNL1        0.0449
      7 C         138.4603  140.6433  160.7727 C.3     1  UNL1        0.0746
      8 N         138.7088  139.1696  160.6443 N.3     1  UNL1       -0.2676
      9 C         139.2131  138.6040  159.3498 C.3     1  UNL1        0.0746
     10 C         139.4689  139.5121  158.1837 C.3     1  UNL1        0.0449
     11 C         139.0192  142.4721  158.2912 C.2     1  UNL1        0.2529
     12 O         138.5268  143.3112  159.4329 O.2     1  UNL1       -0.2724
     13 C         140.0567  139.1667  156.5411 C.ar    1  UNL1        0.1526
     14 N         138.9720  138.2488  156.0603 N.ar    1  UNL1       -0.2259
     15 C         139.3064  136.8485  155.6395 C.ar    1  UNL1        0.1209
     16 C         140.7254  136.3658  155.6993 C.ar    1  UNL1        0.1192
     17 N         141.8100  137.2836  156.1800 N.ar    1  UNL1       -0.2437
     18 C         141.4757  138.6840  156.6009 C.ar    1  UNL1        0.0913
     19 C         142.5603  139.6018  157.0816 C.3     1  UNL1        0.0551
     20 C         139.2514  147.2521  155.5466 C.ar    1  UNL1       -0.0002
     21 C         138.1906  146.2861  155.1087 C.ar    1  UNL1        0.0013
     22 C         138.2391  144.8594  155.5692 C.ar    1  UNL1        0.0154
     23 C         139.3483  144.3986  156.4677 C.ar    1  UNL1        0.0622
     24 C         140.4090  145.3645  156.9055 C.ar    1  UNL1        0.0154
     25 C         140.3606  146.7912  156.4450 C.ar    1  UNL1        0.0013
     26 C         138.1328  149.3731  157.3494 C.3     1  UNL1        0.0310
     27 C         138.6436  149.7392  155.9874 C.ar    1  UNL1       -0.0218
     28 C         138.5951  151.1660  155.5269 C.ar    1  UNL1       -0.0031
     29 C         139.1059  151.5323  154.1649 C.ar    1  UNL1        0.0137
     30 C         139.6652  150.4717  153.2634 C.ar    1  UNL1        0.0011
     31 C         139.7137  149.0450  153.7240 C.ar    1  UNL1       -0.0003
     32 C         139.2029  148.6788  155.0860 C.ar    1  UNL1       -0.0040
     33 C         139.0574  152.9590  153.7043 C.2     1  UNL1        0.0729
     34 O         140.0823  153.9397  154.1920 O.co2   1  UNL1       -0.5446
     35 O         137.9841  153.4049  152.7561 O.co2   1  UNL1       -0.5446
     36 C         138.4530  138.2615  161.8105 C.3     1  UNL1        0.1183
     37 C         139.4554  138.1681  162.9224 C.ar    1  UNL1        0.0712
     38 N         140.6265  137.2387  162.8003 N.ar    1  UNL1       -0.2471
     39 C         141.6290  137.1454  163.9122 C.ar    1  UNL1        0.0985
     40 C         141.4604  137.9813  165.1462 C.ar    1  UNL1        0.0203
     41 C         140.2893  138.9106  165.2683 C.ar    1  UNL1       -0.0015
     42 C         139.2868  139.0040  164.1565 C.ar    1  UNL1       -0.0069
     43 C         138.1157  139.9333  164.2786 C.3     1  UNL1        0.0323
@<TRIPOS>UNITY_ATOM_ATTR
34 1
charge -1
@<TRIPOS>BOND
     1    26    27    1
     2    27    28   ar
     3    28    29   ar
     4    29    33    1
     5    33    34   ar
     6    33    35   ar
     7    29    30   ar
     8    30    31   ar
     9    31    32   ar
    10    32    20    1
    11    20    21   ar
    12    21    22   ar
    13    22    23   ar
    14    23     1    1
    15     1     2   am
    16     2     3    2
    17     2     4   am
    18     4    13    1
    19    13    14   ar
    20    14    15   ar
    21    15    16   ar
    22    16    17   ar
    23    17    18   ar
    24    18    19    1
    25     4     5    1
    26     5     6    1
    27     6     7    1
    28     7     8    1
    29     8    36    1
    30    36    37    1
    31    37    38   ar
    32    38    39   ar
    33    39    40   ar
    34    40    41   ar
    35    41    42   ar
    36    42    43    1
    37     8     9    1
    38     9    10    1
    39     5    11    1
    40    11    12    2
    41    23    24   ar
    42    24    25   ar
    43    32    27   ar
    44    25    20   ar
    45    11     1   am
    46    18    13   ar
    47    10     5    1
    48    42    37   ar
@<TRIPOS>MOLECULE
*****
 43 48 0 0 0
SMALL
GASTEIGER

@<TRIPOS>ATOM
      1 N         141.4683  139.5151  160.7445 N.am    1  UNL1       -0.1907
      2 C         142.5169  138.7430  159.9999 C.2     1  UNL1        0.3220
      3 O         143.8408  138.2996  160.5479 O.2     1  UNL1       -0.2512
      4 N         142.0090  138.4922  158.6109 N.am    1  UNL1       -0.2215
      5 C         140.6464  139.1093  158.4971 C.3     1  UNL1        0.1391
      6 C         139.3010  139.7716  158.5327 C.3     1  UNL1        0.0449
      7 C         138.4263  139.7588  157.3143 C.3     1  UNL1        0.0746
      8 N         138.8970  139.0837  156.0602 N.3     1  UNL1       -0.2676
      9 C         140.2424  138.4215  156.0246 C.3     1  UNL1        0.0746
     10 C         141.1171  138.4343  157.2430 C.3     1  UNL1        0.0449
     11 C         140.3123  139.7415  159.8157 C.2     1  UNL1        0.2529
     12 O         139.0448  140.4718  160.1474 O.2     1  UNL1       -0.2724
     13 C         142.7358  137.7540  157.5262 C.ar    1  UNL1        0.1526
     14 N         142.5267  136.2788  157.3529 N.ar    1  UNL1       -0.2259
     15 C         143.2536  135.5407  156.2681 C.ar    1  UNL1        0.1209
     16 C         144.1896  136.2776  155.3566 C.ar    1  UNL1        0.1192
     17 N         144.3988  137.7528  155.5300 N.ar    1  UNL1       -0.2437
     18 C         143.6719  138.4910  156.6148 C.ar    1  UNL1        0.0913
     19 C         143.8810  139.9662  156.7882 C.3     1  UNL1        0.0551
     20 C         141.7424  140.9076  165.0148 C.ar    1  UNL1       -0.0002
     21 C         140.8225  139.7799  164.6512 C.ar    1  UNL1        0.0013
     22 C         140.7312  139.3157  163.2278 C.ar    1  UNL1        0.0154
     23 C         141.5597  139.9793  162.1680 C.ar    1  UNL1        0.0622
     24 C         142.4794  141.1069  162.5315 C.ar    1  UNL1        0.0154
     25 C         142.5708  141.5711  163.9549 C.ar    1  UNL1        0.0013
     26 C         139.9539  143.1090  165.9924 C.3     1  UNL1        0.0310
     27 C         140.9395  142.4725  166.9270 C.ar    1  UNL1       -0.0218
     28 C         141.0308  142.9367  168.3505 C.ar    1  UNL1       -0.0031
     29 C         142.0164  142.3002  169.2852 C.ar    1  UNL1        0.0137
     30 C         142.9107  141.1995  168.7963 C.ar    1  UNL1        0.0011
     31 C         142.8193  140.7353  167.3729 C.ar    1  UNL1       -0.0003
     32 C         141.8337  141.3718  166.4382 C.ar    1  UNL1       -0.0040
     33 C         142.1078  142.7644  170.7086 C.2     1  UNL1        0.0729
     34 O         143.0888  143.8341  171.0871 O.co2   1  UNL1       -0.5446
     35 O         141.2181  142.1588  171.7535 O.co2   1  UNL1       -0.5446
     36 C         138.0223  139.0709  154.8417 C.3     1  UNL1        0.1183
     37 C         136.6920  139.7636  154.8661 C.ar    1  UNL1        0.0712
     38 N         135.4692  139.0233  155.3207 N.ar    1  UNL1       -0.2471
     39 C         134.1389  139.7161  155.3451 C.ar    1  UNL1        0.0985
     40 C         134.0315  141.1491  154.9149 C.ar    1  UNL1        0.0203
     41 C         135.2544  141.8893  154.4604 C.ar    1  UNL1       -0.0015
     42 C         136.5846  141.1966  154.4360 C.ar    1  UNL1       -0.0069
     43 C         137.8075  141.9369  153.9814 C.3     1  UNL1        0.0323
@<TRIPOS>UNITY_ATOM_ATTR
34 1
charge -1
@<TRIPOS>BOND
     1    26    27    1
     2    27    28   ar
     3    28    29   ar
     4    29    33    1
     5    33    34   ar
     6    33    35   ar
     7    29    30   ar
     8    30    31   ar
     9    31    32   ar
    10    32    20    1
    11    20    21   ar
    12    21    22   ar
    13    22    23   ar
    14    23     1    1
    15     1     2   am
    16     2     3    2
    17     2     4   am
    18     4    13    1
    19    13    14   ar
    20    14    15   ar
    21    15    16   ar
    22    16    17   ar
    23    17    18   ar
    24    18    19    1
    25     4     5    1
    26     5     6    1
    27     6     7    1
    28     7     8    1
    29     8    36    1
    30    36    37    1
    31    37    38   ar
    32    38    39   ar
    33    39    40   ar
    34    40    41   ar
    35    41    42   ar
    36    42    43    1
    37     8     9    1
    38     9    10    1
    39     5    11    1
    40    11    12    2
    41    23    24   ar
    42    24    25   ar
    43    32    27   ar
    44    25    20   ar
    45    11     1   am
    46    18    13   ar
    47    10     5    1
    48    42    37   ar
@<TRIPOS>MOLECULE
*****
 43 48 0 0 0
SMALL
GASTEIGER

@<TRIPOS>ATOM
      1 N         142.9570  140.3101  160.5180 N.am    1  UNL1       -0.1907
      2 C         142.4985  139.1950  159.6256 C.2     1  UNL1        0.3220
      3 O         141.6825  138.0085  160.0454 O.2     1  UNL1       -0.2512
      4 N         142.9994  139.4747  158.2396 N.am    1  UNL1       -0.2215
      5 C         143.7674  140.7628  158.2754 C.3     1  UNL1        0.1391
      6 C         144.5023  142.0566  158.4646 C.3     1  UNL1        0.0449
      7 C         145.1778  142.7131  157.2973 C.3     1  UNL1        0.0746
      8 N         145.1186  142.0756  155.9408 N.3     1  UNL1       -0.2676
      9 C         144.3837  140.7818  155.7516 C.3     1  UNL1        0.0746
     10 C         143.7082  140.1253  156.9189 C.3     1  UNL1        0.0449
     11 C         143.7413  141.2790  159.6836 C.2     1  UNL1        0.2529
     12 O         144.3861  142.5423  160.1716 O.2     1  UNL1       -0.2724
     13 C         142.7721  138.6172  157.0301 C.ar    1  UNL1        0.1526
     14 N         143.8346  137.6590  156.5797 N.ar    1  UNL1       -0.2259
     15 C         143.6073  136.8014  155.3702 C.ar    1  UNL1        0.1209
     16 C         142.3174  136.9020  154.6111 C.ar    1  UNL1        0.1192
     17 N         141.2549  137.8602  155.0615 N.ar    1  UNL1       -0.2437
     18 C         141.4823  138.7178  156.2710 C.ar    1  UNL1        0.0913
     19 C         140.4198  139.6760  156.7215 C.3     1  UNL1        0.0551
     20 C         142.1259  140.6830  164.9248 C.ar    1  UNL1       -0.0002
     21 C         141.3812  141.5415  163.9458 C.ar    1  UNL1        0.0013
     22 C         141.6582  141.4172  162.4769 C.ar    1  UNL1        0.0154
     23 C         142.6800  140.4344  161.9870 C.ar    1  UNL1        0.0622
     24 C         143.4247  139.5760  162.9659 C.ar    1  UNL1        0.0154
     25 C         143.1476  139.7003  164.4348 C.ar    1  UNL1        0.0013
     26 C         143.6044  142.7151  166.5634 C.3     1  UNL1        0.0310
     27 C         142.5881  141.8234  167.2130 C.ar    1  UNL1       -0.0218
     28 C         142.3110  141.9477  168.6820 C.ar    1  UNL1       -0.0031
     29 C         141.2947  141.0560  169.3317 C.ar    1  UNL1        0.0137
     30 C         140.5555  140.0400  168.5123 C.ar    1  UNL1        0.0011
     31 C         140.8325  139.9157  167.0434 C.ar    1  UNL1       -0.0003
     32 C         141.8488  140.8074  166.3937 C.ar    1  UNL1       -0.0040
     33 C         141.0177  141.1804  170.8006 C.2     1  UNL1        0.0729
     34 O         141.7454  142.2071  171.6168 O.co2   1  UNL1       -0.5446
     35 O         140.0129  140.2779  171.4533 O.co2   1  UNL1       -0.5446
     36 C         145.7942  142.7321  154.7734 C.3     1  UNL1        0.1183
     37 C         147.2733  142.5768  154.5784 C.ar    1  UNL1        0.0712
     38 N         148.0505  141.6378  155.4525 N.ar    1  UNL1       -0.2471
     39 C         149.5297  141.4826  155.2574 C.ar    1  UNL1        0.0985
     40 C         150.2315  142.2663  154.1882 C.ar    1  UNL1        0.0203
     41 C         149.4543  143.2053  153.3141 C.ar    1  UNL1       -0.0015
     42 C         147.9752  143.3606  153.5092 C.ar    1  UNL1       -0.0069
     43 C         147.1979  144.2996  152.6350 C.3     1  UNL1        0.0323
@<TRIPOS>UNITY_ATOM_ATTR
34 1
charge -1
@<TRIPOS>BOND
     1    26    27    1
     2    27    28   ar
     3    28    29   ar
     4    29    33    1
     5    33    34   ar
     6    33    35   ar
     7    29    30   ar
     8    30    31   ar
     9    31    32   ar
    10    32    20    1
    11    20    21   ar
    12    21    22   ar
    13    22    23   ar
    14    23     1    1
    15     1     2   am
    16     2     3    2
    17     2     4   am
    18     4    13    1
    19    13    14   ar
    20    14    15   ar
    21    15    16   ar
    22    16    17   ar
    23    17    18   ar
    24    18    19    1
    25     4     5    1
    26     5     6    1
    27     6     7    1
    28     7     8    1
    29     8    36    1
    30    36    37    1
    31    37    38   ar
    32    38    39   ar
    33    39    40   ar
    34    40    41   ar
    35    41    42   ar
    36    42    43    1
    37     8     9    1
    38     9    10    1
    39     5    11    1
    40    11    12    2
    41    23    24   ar
    42    24    25   ar
    43    32    27   ar
    44    25    20   ar
    45    11     1   am
    46    18    13   ar
    47    10     5    1
    48    42    37   ar
@<TRIPOS>MOLECULE
*****
 43 48 0 0 0
SMALL
GASTEIGER

@<TRIPOS>ATOM
      1 N         139.5133  142.9337  160.5512 N.am    1  UNL1       -0.1907
      2 C         140.1824  144.0654  159.8290 C.2     1  UNL1        0.3220
      3 O         141.0657  145.1072  160.4489 O.2     1  UNL1       -0.2512
      4 N         139.8131  143.9724  158.3782 N.am    1  UNL1       -0.2215
      5 C         138.9157  142.7831  158.2036 C.3     1  UNL1        0.1391
      6 C         138.0334  141.5702  158.1835 C.3     1  UNL1        0.0449
      7 C         137.4277  141.1047  156.8927 C.3     1  UNL1        0.0746
      8 N         137.7044  141.8521  155.6218 N.3     1  UNL1       -0.2676
      9 C         138.5867  143.0649  155.6419 C.3     1  UNL1        0.0746
     10 C         139.1924  143.5304  156.9328 C.3     1  UNL1        0.0449
     11 C         138.7304  142.1411  159.5466 C.2     1  UNL1        0.2529
     12 O         137.9068  140.9210  159.8345 O.2     1  UNL1       -0.2724
     13 C         140.2623  144.9048  157.2925 C.ar    1  UNL1        0.1526
     14 N         139.3756  146.0346  156.8597 N.ar    1  UNL1       -0.2259
     15 C         139.8249  146.9670  155.7740 C.ar    1  UNL1        0.1209
     16 C         141.1609  146.7696  155.1210 C.ar    1  UNL1        0.1192
     17 N         142.0475  145.6398  155.5538 N.ar    1  UNL1       -0.2437
     18 C         141.5983  144.7075  156.6395 C.ar    1  UNL1        0.0913
     19 C         142.4850  143.5777  157.0724 C.3     1  UNL1        0.0551
     20 C         139.8034  142.0680  164.9576 C.ar    1  UNL1       -0.0002
     21 C         140.9883  141.8348  164.0678 C.ar    1  UNL1        0.0013
     22 C         140.8916  142.1234  162.5990 C.ar    1  UNL1        0.0154
     23 C         139.6100  142.6451  162.0200 C.ar    1  UNL1        0.0622
     24 C         138.4252  142.8782  162.9097 C.ar    1  UNL1        0.0154
     25 C         138.5219  142.5897  164.3785 C.ar    1  UNL1        0.0013
     26 C         138.8980  139.4156  166.0279 C.3     1  UNL1        0.0310
     27 C         139.4474  140.4532  166.9615 C.ar    1  UNL1       -0.0218
     28 C         139.5441  140.1646  168.4304 C.ar    1  UNL1       -0.0031
     29 C         140.0935  141.2022  169.3640 C.ar    1  UNL1        0.0137
     30 C         140.5462  142.5284  168.8287 C.ar    1  UNL1        0.0011
     31 C         140.4495  142.8169  167.3600 C.ar    1  UNL1       -0.0003
     32 C         139.9001  141.7794  166.4263 C.ar    1  UNL1       -0.0040
     33 C         140.1902  140.9136  170.8328 C.2     1  UNL1        0.0729
     34 O         139.7243  139.5928  171.3698 O.co2   1  UNL1       -0.5446
     35 O         140.7529  141.9458  171.7645 O.co2   1  UNL1       -0.5446
     36 C         137.0986  141.3865  154.3309 C.3     1  UNL1        0.1183
     37 C         137.3902  140.0066  153.8203 C.ar    1  UNL1        0.0712
     38 N         138.6694  139.7333  153.0862 N.ar    1  UNL1       -0.2471
     39 C         138.9610  138.3533  152.5755 C.ar    1  UNL1        0.0985
     40 C         137.9734  137.2467  152.7990 C.ar    1  UNL1        0.0203
     41 C         136.6942  137.5200  153.5331 C.ar    1  UNL1       -0.0015
     42 C         136.4026  138.8999  154.0438 C.ar    1  UNL1       -0.0069
     43 C         135.1234  139.1732  154.7779 C.3     1  UNL1        0.0323
@<TRIPOS>UNITY_ATOM_ATTR
34 1
charge -1
@<TRIPOS>BOND
     1    26    27    1
     2    27    28   ar
     3    28    29   ar
     4    29    33    1
     5    33    34   ar
     6    33    35   ar
     7    29    30   ar
     8    30    31   ar
     9    31    32   ar
    10    32    20    1
    11    20    21   ar
    12    21    22   ar
    13    22    23   ar
    14    23     1    1
    15     1     2   am
    16     2     3    2
    17     2     4   am
    18     4    13    1
    19    13    14   ar
    20    14    15   ar
    21    15    16   ar
    22    16    17   ar
    23    17    18   ar
    24    18    19    1
    25     4     5    1
    26     5     6    1
    27     6     7    1
    28     7     8    1
    29     8    36    1
    30    36    37    1
    31    37    38   ar
    32    38    39   ar
    33    39    40   ar
    34    40    41   ar
    35    41    42   ar
    36    42    43    1
    37     8     9    1
    38     9    10    1
    39     5    11    1
    40    11    12    2
    41    23    24   ar
    42    24    25   ar
    43    32    27   ar
    44    25    20   ar
    45    11     1   am
    46    18    13   ar
    47    10     5    1
    48    42    37   ar
@<TRIPOS>MOLECULE
*****
 43 48 0 0 0
SMALL
GASTEIGER

@<TRIPOS>ATOM
      1 N         141.3356  142.8959  160.7112 N.am    1  UNL1       -0.1907
      2 C         140.4908  143.8383  159.9060 C.2     1  UNL1        0.3220
      3 O         139.3465  144.6581  160.4237 O.2     1  UNL1       -0.2512
      4 N         140.9915  143.8169  158.4922 N.am    1  UNL1       -0.2215
      5 C         142.1457  142.8613  158.4235 C.3     1  UNL1        0.1391
      6 C         143.2777  141.8808  158.5083 C.3     1  UNL1        0.0449
      7 C         144.0785  141.5522  157.2833 C.3     1  UNL1        0.0746
      8 N         143.7474  142.2040  155.9735 N.3     1  UNL1       -0.2676
      9 C         142.6154  143.1845  155.8887 C.3     1  UNL1        0.0746
     10 C         141.8146  143.5131  157.1137 C.3     1  UNL1        0.0449
     11 C         142.3584  142.2920  159.7949 C.2     1  UNL1        0.2529
     12 O         143.4093  141.2942  160.1821 O.2     1  UNL1       -0.2724
     13 C         140.4356  144.6116  157.3479 C.ar    1  UNL1        0.1526
     14 N         141.0907  145.8978  156.9397 N.ar    1  UNL1       -0.2259
     15 C         140.5348  146.6924  155.7954 C.ar    1  UNL1        0.1209
     16 C         139.3237  146.2010  155.0592 C.ar    1  UNL1        0.1192
     17 N         138.6687  144.9148  155.4674 N.ar    1  UNL1       -0.2437
     18 C         139.2246  144.1202  156.6117 C.ar    1  UNL1        0.0913
     19 C         138.5695  142.8340  157.0199 C.3     1  UNL1        0.0551
     20 C         140.8814  142.0317  165.1039 C.ar    1  UNL1       -0.0002
     21 C         139.7244  141.8171  164.1738 C.ar    1  UNL1        0.0013
     22 C         139.8758  142.1051  162.7095 C.ar    1  UNL1        0.0154
     23 C         141.1842  142.6078  162.1754 C.ar    1  UNL1        0.0622
     24 C         142.3412  142.8224  163.1055 C.ar    1  UNL1        0.0154
     25 C         142.1898  142.5344  164.5698 C.ar    1  UNL1        0.0013
     26 C         141.0763  139.2106  166.1058 C.3     1  UNL1        0.0310
     27 C         140.8275  140.3332  167.0691 C.ar    1  UNL1       -0.0218
     28 C         140.6761  140.0451  168.5334 C.ar    1  UNL1       -0.0031
     29 C         140.4272  141.1676  169.4968 C.ar    1  UNL1        0.0137
     30 C         140.3298  142.5782  168.9959 C.ar    1  UNL1        0.0011
     31 C         140.4812  142.8662  167.5316 C.ar    1  UNL1       -0.0003
     32 C         140.7300  141.7437  166.5682 C.ar    1  UNL1       -0.0040
     33 C         140.2758  140.8795  170.9611 C.2     1  UNL1        0.0729
     34 O         140.7053  141.8988  171.9742 O.co2   1  UNL1       -0.5446
     35 O         139.6950  139.5722  171.4121 O.co2   1  UNL1       -0.5446
     36 C         144.5483  141.8753  154.7485 C.3     1  UNL1        0.1183
     37 C         145.3912  142.9317  154.0977 C.ar    1  UNL1        0.0712
     38 N         144.7852  143.8545  153.0823 N.ar    1  UNL1       -0.2471
     39 C         145.6281  144.9110  152.4315 C.ar    1  UNL1        0.0985
     40 C         147.0769  145.0446  152.7961 C.ar    1  UNL1        0.0203
     41 C         147.6829  144.1218  153.8116 C.ar    1  UNL1       -0.0015
     42 C         146.8401  143.0653  154.4624 C.ar    1  UNL1       -0.0069
     43 C         147.4461  142.1425  155.4778 C.3     1  UNL1        0.0323
@<TRIPOS>UNITY_ATOM_ATTR
34 1
charge -1
@<TRIPOS>BOND
     1    26    27    1
     2    27    28   ar
     3    28    29   ar
     4    29    33    1
     5    33    34   ar
     6    33    35   ar
     7    29    30   ar
     8    30    31   ar
     9    31    32   ar
    10    32    20    1
    11    20    21   ar
    12    21    22   ar
    13    22    23   ar
    14    23     1    1
    15     1     2   am
    16     2     3    2
    17     2     4   am
    18     4    13    1
    19    13    14   ar
    20    14    15   ar
    21    15    16   ar
    22    16    17   ar
    23    17    18   ar
    24    18    19    1
    25     4     5    1
    26     5     6    1
    27     6     7    1
    28     7     8    1
    29     8    36    1
    30    36    37    1
    31    37    38   ar
    32    38    39   ar
    33    39    40   ar
    34    40    41   ar
    35    41    42   ar
    36    42    43    1
    37     8     9    1
    38     9    10    1
    39     5    11    1
    40    11    12    2
    41    23    24   ar
    42    24    25   ar
    43    32    27   ar
    44    25    20   ar
    45    11     1   am
    46    18    13   ar
    47    10     5    1
    48    42    37   ar
