@<TRIPOS>MOLECULE
*****
 24 25 0 0 0
SMALL
GASTEIGER

@<TRIPOS>ATOM
      1 C         139.8152  140.6643  167.8514 C.ar    1  UNL1        0.1328
      2 N         138.9785  139.4498  168.1248 N.ar    1  UNL1       -0.1993
      3 C         138.0653  138.9136  167.0625 C.ar    1  UNL1        0.2148
      4 N         137.2284  137.6990  167.3359 N.pl3   1  UNL1       -0.3274
      5 N         137.9888  139.5918  165.7268 N.ar    1  UNL1       -0.2139
      6 C         138.8256  140.8063  165.4533 C.ar    1  UNL1        0.0870
      7 C         138.7492  141.4846  164.1177 C.ar    1  UNL1        0.0216
      8 C         139.5860  142.6991  163.8443 C.ar    1  UNL1        0.0312
      9 C         140.4992  143.2353  164.9066 C.ar    1  UNL1        0.1403
     10 F         141.3360  144.4499  164.6331 F       1  UNL1       -0.2042
     11 C         140.5756  142.5571  166.2423 C.ar    1  UNL1        0.0339
     12 C         139.7389  141.3426  166.5156 C.ar    1  UNL1        0.0514
     13 H         137.2786  137.2539  168.2126 H       1  UNL1        0.1452
     14 H         136.6291  137.3470  166.6387 H       1  UNL1        0.1452
     15 N         140.7285  141.2005  168.9137 N.pl3   1  UNL1       -0.3195
     16 H         140.3799  141.8181  169.5967 H       1  UNL1        0.1481
     17 C         142.1727  140.7959  168.9354 C.3     1  UNL1        0.0729
     18 C         142.5819  139.4483  168.4193 C.3     1  UNL1        0.0196
     19 C         142.2651  138.7408  165.9395 C.3     1  UNL1        0.0001
     20 C         143.1253  139.3115  167.0278 C.3     1  UNL1        0.0017
     21 C         143.2078  141.7390  169.4734 C.3     1  UNL1        0.0512
     22 C         142.8270  142.7644  170.4998 C.3     1  UNL1        0.1389
     23 O         142.0725  142.3513  171.7286 O.3     1  UNL1       -0.3819
     24 H         141.1897  142.0387  171.4761 H       1  UNL1        0.2104
@<TRIPOS>BOND
     1    19    20    1
     2    20    18    1
     3    17    18    1
     4    17    21    1
     5    21    22    1
     6    22    23    1
     7    17    15    1
     8    15     1    1
     9     1     2   ar
    10     2     3   ar
    11     3     4    1
    12     3     5   ar
    13     5     6   ar
    14     6     7   ar
    15     7     8   ar
    16     8     9   ar
    17     9    10    1
    18     9    11   ar
    19    11    12   ar
    20    12     1   ar
    21    12     6   ar
    22    23    24    1
    23    15    16    1
    24     4    13    1
    25     4    14    1
@<TRIPOS>MOLECULE
*****
 24 25 0 0 0
SMALL
GASTEIGER

@<TRIPOS>ATOM
      1 C         137.6335  141.4231  162.9971 C.ar    1  UNL1        0.1328
      2 N         137.5282  141.3919  161.5012 N.ar    1  UNL1       -0.1993
      3 C         137.8581  140.1348  160.7522 C.ar    1  UNL1        0.2148
      4 N         137.7528  140.1037  159.2561 N.pl3   1  UNL1       -0.3274
      5 N         138.2932  138.9090  161.4991 N.ar    1  UNL1       -0.2139
      6 C         138.3985  138.9402  162.9951 C.ar    1  UNL1        0.0870
      7 C         138.8337  137.7143  163.7420 C.ar    1  UNL1        0.0216
      8 C         138.9390  137.7455  165.2380 C.ar    1  UNL1        0.0312
      9 C         138.6091  139.0026  165.9870 C.ar    1  UNL1        0.1403
     10 F         138.7144  139.0337  167.4830 F       1  UNL1       -0.2042
     11 C         138.1739  140.2284  165.2401 C.ar    1  UNL1        0.0339
     12 C         138.0687  140.1972  163.7441 C.ar    1  UNL1        0.0514
     13 H         137.4672  140.9083  158.7659 H       1  UNL1        0.1452
     14 H         137.9693  139.2787  158.7645 H       1  UNL1        0.1452
     15 N         137.3036  142.6801  163.7462 N.pl3   1  UNL1       -0.3195
     16 H         136.4184  142.7864  164.1637 H       1  UNL1        0.1481
     17 C         138.3224  143.7752  163.8590 C.3     1  UNL1        0.0729
     18 C         139.0355  144.0053  165.1585 C.3     1  UNL1        0.0196
     19 C         140.4601  142.7341  166.9205 C.3     1  UNL1        0.0001
     20 C         140.2428  143.1860  165.5068 C.3     1  UNL1        0.0017
     21 C         138.6283  144.6403  162.6723 C.3     1  UNL1        0.0512
     22 C         140.0506  144.9801  162.3385 C.3     1  UNL1        0.1389
     23 O         140.5680  146.3664  162.5844 O.3     1  UNL1       -0.3819
     24 H         140.1104  146.9907  161.9997 H       1  UNL1        0.2104
@<TRIPOS>BOND
     1    19    20    1
     2    20    18    1
     3    17    18    1
     4    17    21    1
     5    21    22    1
     6    22    23    1
     7    17    15    1
     8    15     1    1
     9     1     2   ar
    10     2     3   ar
    11     3     4    1
    12     3     5   ar
    13     5     6   ar
    14     6     7   ar
    15     7     8   ar
    16     8     9   ar
    17     9    10    1
    18     9    11   ar
    19    11    12   ar
    20    12     1   ar
    21    12     6   ar
    22    23    24    1
    23    15    16    1
    24     4    13    1
    25     4    14    1
@<TRIPOS>MOLECULE
*****
 24 25 0 0 0
SMALL
GASTEIGER

@<TRIPOS>ATOM
      1 C         141.8955  142.5568  164.9354 C.ar    1  UNL1        0.1328
      2 N         142.1276  143.8621  164.2339 N.ar    1  UNL1       -0.1993
      3 C         143.3681  144.0632  163.4149 C.ar    1  UNL1        0.2148
      4 N         143.6002  145.3687  162.7134 N.pl3   1  UNL1       -0.3274
      5 N         144.3765  142.9590  163.2975 N.ar    1  UNL1       -0.2139
      6 C         144.1444  141.6536  163.9990 C.ar    1  UNL1        0.0870
      7 C         145.1528  140.5494  163.8816 C.ar    1  UNL1        0.0216
      8 C         144.9207  139.2441  164.5831 C.ar    1  UNL1        0.0312
      9 C         143.6802  139.0430  165.4021 C.ar    1  UNL1        0.1403
     10 F         143.4481  137.7375  166.1036 F       1  UNL1       -0.2042
     11 C         142.6718  140.1472  165.5195 C.ar    1  UNL1        0.0339
     12 C         142.9039  141.4525  164.8180 C.ar    1  UNL1        0.0514
     13 H         142.9383  146.0934  162.7905 H       1  UNL1        0.1452
     14 H         144.4143  145.5007  162.1759 H       1  UNL1        0.1452
     15 N         140.6550  142.3557  165.7544 N.pl3   1  UNL1       -0.3195
     16 H         140.6705  142.5322  166.7228 H       1  UNL1        0.1481
     17 C         139.3909  141.8855  165.0979 C.3     1  UNL1        0.0729
     18 C         139.0060  140.4372  165.1626 C.3     1  UNL1        0.0196
     19 C         137.9290  138.7077  166.7748 C.3     1  UNL1        0.0001
     20 C         138.9939  139.7225  166.4815 C.3     1  UNL1        0.0017
     21 C         138.5116  142.8637  164.3767 C.3     1  UNL1        0.0512
     22 C         138.4147  144.2812  164.8575 C.3     1  UNL1        0.1389
     23 O         139.5570  145.2278  164.6365 O.3     1  UNL1       -0.3819
     24 H         140.3248  144.9339  165.1514 H       1  UNL1        0.2104
@<TRIPOS>BOND
     1    19    20    1
     2    20    18    1
     3    17    18    1
     4    17    21    1
     5    21    22    1
     6    22    23    1
     7    17    15    1
     8    15     1    1
     9     1     2   ar
    10     2     3   ar
    11     3     4    1
    12     3     5   ar
    13     5     6   ar
    14     6     7   ar
    15     7     8   ar
    16     8     9   ar
    17     9    10    1
    18     9    11   ar
    19    11    12   ar
    20    12     1   ar
    21    12     6   ar
    22    23    24    1
    23    15    16    1
    24     4    13    1
    25     4    14    1
@<TRIPOS>MOLECULE
*****
 24 25 0 0 0
SMALL
GASTEIGER

@<TRIPOS>ATOM
      1 C         140.7423  145.1010  162.7248 C.ar    1  UNL1        0.1328
      2 N         140.1655  145.4031  161.3735 N.ar    1  UNL1       -0.1993
      3 C         140.9179  145.0190  160.1339 C.ar    1  UNL1        0.2148
      4 N         140.3410  145.3211  158.7826 N.pl3   1  UNL1       -0.3274
      5 N         142.2471  144.3330  160.2457 N.ar    1  UNL1       -0.2139
      6 C         142.8239  144.0309  161.5970 C.ar    1  UNL1        0.0870
      7 C         144.1531  143.3449  161.7088 C.ar    1  UNL1        0.0216
      8 C         144.7299  143.0429  163.0601 C.ar    1  UNL1        0.0312
      9 C         143.9775  143.4269  164.2996 C.ar    1  UNL1        0.1403
     10 F         144.5544  143.1248  165.6510 F       1  UNL1       -0.2042
     11 C         142.6484  144.1129  164.1879 C.ar    1  UNL1        0.0339
     12 C         142.0715  144.4150  162.8366 C.ar    1  UNL1        0.0514
     13 H         139.4686  145.7714  158.7092 H       1  UNL1        0.1452
     14 H         140.8348  145.0691  157.9690 H       1  UNL1        0.1452
     15 N         139.9899  145.4851  163.9643 N.pl3   1  UNL1       -0.3195
     16 H         140.1214  146.3751  164.3641 H       1  UNL1        0.1481
     17 C         139.0372  144.5131  164.5947 C.3     1  UNL1        0.0729
     18 C         139.3735  143.8808  165.9127 C.3     1  UNL1        0.0196
     19 C         140.9971  142.1555  166.9792 C.3     1  UNL1        0.0001
     20 C         139.9567  142.4994  165.9548 C.3     1  UNL1        0.0017
     21 C         137.7480  144.1733  163.9071 C.3     1  UNL1        0.0512
     22 C         137.7075  143.0695  162.8923 C.3     1  UNL1        0.1389
     23 O         137.7521  143.3944  161.4286 O.3     1  UNL1       -0.3819
     24 H         136.9466  143.8739  161.1792 H       1  UNL1        0.2104
@<TRIPOS>BOND
     1    19    20    1
     2    20    18    1
     3    17    18    1
     4    17    21    1
     5    21    22    1
     6    22    23    1
     7    17    15    1
     8    15     1    1
     9     1     2   ar
    10     2     3   ar
    11     3     4    1
    12     3     5   ar
    13     5     6   ar
    14     6     7   ar
    15     7     8   ar
    16     8     9   ar
    17     9    10    1
    18     9    11   ar
    19    11    12   ar
    20    12     1   ar
    21    12     6   ar
    22    23    24    1
    23    15    16    1
    24     4    13    1
    25     4    14    1
@<TRIPOS>MOLECULE
*****
 24 25 0 0 0
SMALL
GASTEIGER

@<TRIPOS>ATOM
      1 C         139.1131  139.7148  165.1409 C.ar    1  UNL1        0.1328
      2 N         138.0654  138.7689  165.6485 N.ar    1  UNL1       -0.1993
      3 C         137.8686  138.5896  167.1247 C.ar    1  UNL1        0.2148
      4 N         136.8209  137.6437  167.6322 N.pl3   1  UNL1       -0.3274
      5 N         138.7195  139.3562  168.0933 N.ar    1  UNL1       -0.2139
      6 C         139.7672  140.3022  167.5858 C.ar    1  UNL1        0.0870
      7 C         140.6181  141.0688  168.5544 C.ar    1  UNL1        0.0216
      8 C         141.6658  142.0146  168.0469 C.ar    1  UNL1        0.0312
      9 C         141.8626  142.1939  166.5707 C.ar    1  UNL1        0.1403
     10 F         142.9104  143.1398  166.0632 F       1  UNL1       -0.2042
     11 C         141.0117  141.4273  165.6021 C.ar    1  UNL1        0.0339
     12 C         139.9641  140.4814  166.1096 C.ar    1  UNL1        0.0514
     13 H         136.2624  137.1406  166.9964 H       1  UNL1        0.1452
     14 H         136.6917  137.5260  168.6011 H       1  UNL1        0.1452
     15 N         139.3100  139.8940  163.6648 N.pl3   1  UNL1       -0.3195
     16 H         140.2179  139.8829  163.2843 H       1  UNL1        0.1481
     17 C         138.1235  140.0902  162.7683 C.3     1  UNL1        0.0729
     18 C         137.2519  141.3001  162.9317 C.3     1  UNL1        0.0196
     19 C         137.8995  143.2654  164.5027 C.3     1  UNL1        0.0001
     20 C         137.8733  142.6502  163.1350 C.3     1  UNL1        0.0017
     21 C         137.8085  139.0766  161.7083 C.3     1  UNL1        0.0512
     22 C         138.8869  138.1700  161.1935 C.3     1  UNL1        0.1389
     23 O         139.6763  137.3255  162.1494 O.3     1  UNL1       -0.3819
     24 H         140.2069  137.8985  162.7247 H       1  UNL1        0.2104
@<TRIPOS>BOND
     1    19    20    1
     2    20    18    1
     3    17    18    1
     4    17    21    1
     5    21    22    1
     6    22    23    1
     7    17    15    1
     8    15     1    1
     9     1     2   ar
    10     2     3   ar
    11     3     4    1
    12     3     5   ar
    13     5     6   ar
    14     6     7   ar
    15     7     8   ar
    16     8     9   ar
    17     9    10    1
    18     9    11   ar
    19    11    12   ar
    20    12     1   ar
    21    12     6   ar
    22    23    24    1
    23    15    16    1
    24     4    13    1
    25     4    14    1
@<TRIPOS>MOLECULE
*****
 24 25 0 0 0
SMALL
GASTEIGER

@<TRIPOS>ATOM
      1 C         141.4854  144.2643  164.1060 C.ar    1  UNL1        0.1328
      2 N         142.5476  144.5266  163.0799 N.ar    1  UNL1       -0.1993
      3 C         143.7548  143.6392  163.0062 C.ar    1  UNL1        0.2148
      4 N         144.8170  143.9016  161.9801 N.pl3   1  UNL1       -0.3274
      5 N         143.8997  142.4895  163.9587 N.ar    1  UNL1       -0.2139
      6 C         142.8374  142.2271  164.9848 C.ar    1  UNL1        0.0870
      7 C         142.9823  141.0774  165.9372 C.ar    1  UNL1        0.0216
      8 C         141.9201  140.8151  166.9633 C.ar    1  UNL1        0.0312
      9 C         140.7130  141.7025  167.0369 C.ar    1  UNL1        0.1403
     10 F         139.6508  141.4401  168.0631 F       1  UNL1       -0.2042
     11 C         140.5681  142.8522  166.0845 C.ar    1  UNL1        0.0339
     12 C         141.6303  143.1145  165.0584 C.ar    1  UNL1        0.0514
     13 H         144.7219  144.6562  161.3550 H       1  UNL1        0.1452
     14 H         145.6093  143.3191  161.9317 H       1  UNL1        0.1452
     15 N         140.2783  145.1516  164.1796 N.pl3   1  UNL1       -0.3195
     16 H         140.1031  145.6779  164.9930 H       1  UNL1        0.1481
     17 C         139.3381  145.2372  163.0140 C.3     1  UNL1        0.0729
     18 C         138.0586  144.4544  163.0234 C.3     1  UNL1        0.0196
     19 C         137.6813  142.0019  163.7934 C.3     1  UNL1        0.0001
     20 C         138.0772  142.9834  162.7304 C.3     1  UNL1        0.0017
     21 C         139.6774  146.1056  161.8389 C.3     1  UNL1        0.0512
     22 C         140.2446  145.4931  160.5926 C.3     1  UNL1        0.1389
     23 O         141.7286  145.4719  160.3759 O.3     1  UNL1       -0.3819
     24 H         142.0534  146.3800  160.2727 H       1  UNL1        0.2104
@<TRIPOS>BOND
     1    19    20    1
     2    20    18    1
     3    17    18    1
     4    17    21    1
     5    21    22    1
     6    22    23    1
     7    17    15    1
     8    15     1    1
     9     1     2   ar
    10     2     3   ar
    11     3     4    1
    12     3     5   ar
    13     5     6   ar
    14     6     7   ar
    15     7     8   ar
    16     8     9   ar
    17     9    10    1
    18     9    11   ar
    19    11    12   ar
    20    12     1   ar
    21    12     6   ar
    22    23    24    1
    23    15    16    1
    24     4    13    1
    25     4    14    1
@<TRIPOS>MOLECULE
*****
 24 25 0 0 0
SMALL
GASTEIGER

@<TRIPOS>ATOM
      1 C         140.3453  141.3040  165.8298 C.ar    1  UNL1        0.1328
      2 N         139.8395  140.0353  165.2096 N.ar    1  UNL1       -0.1993
      3 C         139.1605  139.0033  166.0605 C.ar    1  UNL1        0.2148
      4 N         138.6547  137.7346  165.4403 N.pl3   1  UNL1       -0.3274
      5 N         138.9874  139.2400  167.5316 N.ar    1  UNL1       -0.2139
      6 C         139.4932  140.5087  168.1518 C.ar    1  UNL1        0.0870
      7 C         139.3201  140.7454  169.6228 C.ar    1  UNL1        0.0216
      8 C         139.8259  142.0140  170.2429 C.ar    1  UNL1        0.0312
      9 C         140.5048  143.0460  169.3920 C.ar    1  UNL1        0.1403
     10 F         141.0107  144.3147  170.0122 F       1  UNL1       -0.2042
     11 C         140.6780  142.8094  167.9210 C.ar    1  UNL1        0.0339
     12 C         140.1722  141.5407  167.3009 C.ar    1  UNL1        0.0514
     13 H         138.7684  137.5793  164.4748 H       1  UNL1        0.1452
     14 H         138.2091  137.0573  165.9988 H       1  UNL1        0.1452
     15 N         141.0242  142.3360  164.9789 N.pl3   1  UNL1       -0.3195
     16 H         142.0056  142.3417  164.9012 H       1  UNL1        0.1481
     17 C         140.2079  143.3592  164.2463 C.3     1  UNL1        0.0729
     18 C         140.8740  144.3101  163.2965 C.3     1  UNL1        0.0196
     19 C         143.3111  145.0152  163.8563 C.3     1  UNL1        0.0001
     20 C         141.8450  145.3297  163.8138 C.3     1  UNL1        0.0017
     21 C         138.7254  143.4315  164.4636 C.3     1  UNL1        0.0512
     22 C         137.8703  144.2438  163.5368 C.3     1  UNL1        0.1389
     23 O         137.5980  143.7543  162.1453 O.3     1  UNL1       -0.3819
     24 H         138.4247  143.7459  161.6380 H       1  UNL1        0.2104
@<TRIPOS>BOND
     1    19    20    1
     2    20    18    1
     3    17    18    1
     4    17    21    1
     5    21    22    1
     6    22    23    1
     7    17    15    1
     8    15     1    1
     9     1     2   ar
    10     2     3   ar
    11     3     4    1
    12     3     5   ar
    13     5     6   ar
    14     6     7   ar
    15     7     8   ar
    16     8     9   ar
    17     9    10    1
    18     9    11   ar
    19    11    12   ar
    20    12     1   ar
    21    12     6   ar
    22    23    24    1
    23    15    16    1
    24     4    13    1
    25     4    14    1
@<TRIPOS>MOLECULE
*****
 24 25 0 0 0
SMALL
GASTEIGER

@<TRIPOS>ATOM
      1 C         142.5985  141.7977  167.3913 C.ar    1  UNL1        0.1328
      2 N         143.6084  142.5146  168.2375 N.ar    1  UNL1       -0.1993
      3 C         143.3923  142.6429  169.7163 C.ar    1  UNL1        0.2148
      4 N         144.4023  143.3598  170.5625 N.pl3   1  UNL1       -0.3274
      5 N         142.1662  142.0542  170.3489 N.ar    1  UNL1       -0.2139
      6 C         141.1562  141.3373  169.5027 C.ar    1  UNL1        0.0870
      7 C         139.9302  140.7486  170.1353 C.ar    1  UNL1        0.0216
      8 C         138.9203  140.0317  169.2891 C.ar    1  UNL1        0.0312
      9 C         139.1364  139.9035  167.8103 C.ar    1  UNL1        0.1403
     10 F         138.1264  139.1865  166.9641 F       1  UNL1       -0.2042
     11 C         140.3624  140.4921  167.1777 C.ar    1  UNL1        0.0339
     12 C         141.3724  141.2090  168.0239 C.ar    1  UNL1        0.0514
     13 H         145.2070  143.7462  170.1473 H       1  UNL1        0.1452
     14 H         144.2604  143.4440  171.5331 H       1  UNL1        0.1452
     15 N         142.8146  141.6695  165.9125 N.pl3   1  UNL1       -0.3195
     16 H         143.0530  140.7970  165.5237 H       1  UNL1        0.1481
     17 C         142.6676  142.8706  165.0261 C.3     1  UNL1        0.0729
     18 C         141.3407  143.1829  164.4003 C.3     1  UNL1        0.0196
     19 C         138.7984  143.2713  164.9285 C.3     1  UNL1        0.0001
     20 C         140.2070  143.6734  165.2513 C.3     1  UNL1        0.0017
     21 C         143.8476  143.7593  164.7655 C.3     1  UNL1        0.0512
     22 C         143.6552  145.0797  164.0802 C.3     1  UNL1        0.1389
     23 O         143.9546  145.2157  162.6168 O.3     1  UNL1       -0.3819
     24 H         144.9053  145.0928  162.4684 H       1  UNL1        0.2104
@<TRIPOS>BOND
     1    19    20    1
     2    20    18    1
     3    17    18    1
     4    17    21    1
     5    21    22    1
     6    22    23    1
     7    17    15    1
     8    15     1    1
     9     1     2   ar
    10     2     3   ar
    11     3     4    1
    12     3     5   ar
    13     5     6   ar
    14     6     7   ar
    15     7     8   ar
    16     8     9   ar
    17     9    10    1
    18     9    11   ar
    19    11    12   ar
    20    12     1   ar
    21    12     6   ar
    22    23    24    1
    23    15    16    1
    24     4    13    1
    25     4    14    1
@<TRIPOS>MOLECULE
*****
 24 25 0 0 0
SMALL
GASTEIGER

@<TRIPOS>ATOM
      1 C         142.5047  141.8521  167.4526 C.ar    1  UNL1        0.1328
      2 N         143.6708  142.5079  168.1309 N.ar    1  UNL1       -0.1993
      3 C         143.7447  142.5426  169.6287 C.ar    1  UNL1        0.2148
      4 N         144.9109  143.1984  170.3070 N.pl3   1  UNL1       -0.3274
      5 N         142.6525  141.9217  170.4481 N.ar    1  UNL1       -0.2139
      6 C         141.4864  141.2659  169.7698 C.ar    1  UNL1        0.0870
      7 C         140.3942  140.6450  170.5892 C.ar    1  UNL1        0.0216
      8 C         139.2281  139.9893  169.9109 C.ar    1  UNL1        0.0312
      9 C         139.1542  139.9545  168.4131 C.ar    1  UNL1        0.1403
     10 F         137.9880  139.2987  167.7348 F       1  UNL1       -0.2042
     11 C         140.2463  140.5754  167.5937 C.ar    1  UNL1        0.0339
     12 C         141.4124  141.2311  168.2720 C.ar    1  UNL1        0.0514
     13 H         145.6278  143.6060  169.7692 H       1  UNL1        0.1452
     14 H         144.9594  143.2213  171.2900 H       1  UNL1        0.1452
     15 N         142.4308  141.8173  165.9548 N.pl3   1  UNL1       -0.3195
     16 H         141.7991  142.4040  165.4794 H       1  UNL1        0.1481
     17 C         143.3193  140.8887  165.1814 C.3     1  UNL1        0.0729
     18 C         143.5377  139.4851  165.6631 C.3     1  UNL1        0.0196
     19 C         141.3167  138.3149  164.9939 C.3     1  UNL1        0.0001
     20 C         142.8163  138.3458  165.0059 C.3     1  UNL1        0.0017
     21 C         143.9894  141.3638  163.9262 C.3     1  UNL1        0.0512
     22 C         145.2454  142.1796  164.0092 C.3     1  UNL1        0.1389
     23 O         146.4598  141.7681  163.2309 O.3     1  UNL1       -0.3819
     24 H         146.7920  140.9234  163.5727 H       1  UNL1        0.2104
@<TRIPOS>BOND
     1    19    20    1
     2    20    18    1
     3    17    18    1
     4    17    21    1
     5    21    22    1
     6    22    23    1
     7    17    15    1
     8    15     1    1
     9     1     2   ar
    10     2     3   ar
    11     3     4    1
    12     3     5   ar
    13     5     6   ar
    14     6     7   ar
    15     7     8   ar
    16     8     9   ar
    17     9    10    1
    18     9    11   ar
    19    11    12   ar
    20    12     1   ar
    21    12     6   ar
    22    23    24    1
    23    15    16    1
    24     4    13    1
    25     4    14    1
