@<TRIPOS>MOLECULE
*****
 34 38 0 0 0
SMALL
GASTEIGER

@<TRIPOS>ATOM
      1 C         141.1552  142.0277  161.9383 C.3     1  UNL1        0.0545
      2 C         140.8569  143.4833  161.7325 C.3     1  UNL1        0.0162
      3 C         139.5499  143.7879  162.4026 C.3     1  UNL1        0.0095
      4 C         138.5578  144.8756  162.6895 C.3     1  UNL1        0.0005
      5 C         137.4351  144.2806  163.4867 C.3     1  UNL1        0.0005
      6 C         137.7334  142.8250  163.6925 C.3     1  UNL1        0.0087
      7 C         139.0404  142.5205  163.0225 C.3     1  UNL1        0.0704
      8 C         140.0325  141.4327  162.7355 C.3     1  UNL1        0.0243
      9 C         138.5309  141.2531  163.6423 C.2     1  UNL1        0.2250
     10 O         137.6293  140.3451  162.8596 O.2     1  UNL1       -0.2749
     11 N         138.9230  140.8938  165.0449 N.am    1  UNL1       -0.2750
     12 C         138.4135  139.6264  165.6647 C.3     1  UNL1        0.1000
     13 C         138.8056  139.2671  167.0672 C.3     1  UNL1        0.0670
     14 C         139.7073  140.1751  167.8499 C.ar    1  UNL1        0.0583
     15 N         140.0994  139.8158  169.2525 N.ar    1  UNL1       -0.2484
     16 C         141.0010  140.7238  170.0352 C.ar    1  UNL1        0.1023
     17 C         141.5105  141.9912  169.4152 C.ar    1  UNL1        0.0902
     18 C         141.1184  142.3505  168.0127 C.ar    1  UNL1        0.0040
     19 C         140.2167  141.4425  167.2301 C.ar    1  UNL1        0.0113
     20 C         139.8246  141.8018  165.8275 C.3     1  UNL1        0.1213
     21 C         142.4121  142.8992  170.1979 C.3     1  UNL1        0.4200
     22 F         143.3137  143.8072  170.9806 F       1  UNL1       -0.1658
     23 F         141.3849  143.9893  170.1166 F       1  UNL1       -0.1658
     24 F         143.4393  141.8092  170.2793 F       1  UNL1       -0.1658
     25 N         142.3640  141.2957  161.4352 N.3     1  UNL1       -0.2975
     26 H         142.0345  140.4063  161.0599 H       1  UNL1        0.1232
     27 C         144.5605  142.0001  162.6305 C.3     1  UNL1        0.1591
     28 C         145.6892  141.6837  163.5665 C.3     1  UNL1        0.1729
     29 O         145.7499  140.3464  164.2431 O.3     1  UNL1       -0.3511
     30 C         144.6819  139.3254  163.9838 C.3     1  UNL1        0.1437
     31 C         143.5533  139.6418  163.0478 C.3     1  UNL1        0.0503
     32 C         143.4926  140.9792  162.3712 C.3     1  UNL1        0.0865
     33 C         144.1239  144.5589  162.7391 C.3     1  UNL1        0.1742
     34 O         144.4998  143.3374  161.9538 O.3     1  UNL1       -0.3496
@<TRIPOS>BOND
     1    33    34    1
     2    27    34    1
     3    27    28    1
     4    28    29    1
     5    29    30    1
     6    30    31    1
     7    31    32    1
     8    32    25    1
     9     1    25    1
    10     1     2    1
    11     3     2    1
    12     3     4    1
    13     4     5    1
    14     5     6    1
    15     6     7    1
    16     7     9    1
    17     9    10    2
    18     9    11   am
    19    11    12    1
    20    12    13    1
    21    13    14    1
    22    14    15   ar
    23    15    16   ar
    24    16    17   ar
    25    17    21    1
    26    21    22    1
    27    21    23    1
    28    21    24    1
    29    17    18   ar
    30    18    19   ar
    31    19    20    1
    32     7     8    1
    33    32    27    1
    34     8     1    1
    35     7     3    1
    36    20    11    1
    37    19    14   ar
    38    25    26    1
@<TRIPOS>MOLECULE
*****
 34 38 0 0 0
SMALL
GASTEIGER

@<TRIPOS>ATOM
      1 C         139.4514  139.4381  166.4125 C.3     1  UNL1        0.0545
      2 C         139.0205  139.8347  167.7934 C.3     1  UNL1        0.0162
      3 C         140.2538  140.0853  168.6097 C.3     1  UNL1        0.0095
      4 C         140.7497  140.4853  169.9677 C.3     1  UNL1        0.0005
      5 C         142.2492  140.4907  169.9305 C.3     1  UNL1        0.0005
      6 C         142.6801  140.0940  168.5496 C.3     1  UNL1        0.0087
      7 C         141.4469  139.8435  167.7333 C.3     1  UNL1        0.0704
      8 C         140.9509  139.4434  166.3753 C.3     1  UNL1        0.0243
      9 C         142.6399  139.6016  166.8568 C.2     1  UNL1        0.2250
     10 O         143.5924  138.4880  167.1771 O.2     1  UNL1       -0.2749
     11 N         142.8804  140.4734  165.6601 N.am    1  UNL1       -0.2750
     12 C         144.0734  140.2316  164.7836 C.3     1  UNL1        0.1000
     13 C         144.3140  141.1034  163.5870 C.3     1  UNL1        0.0670
     14 C         143.3615  142.2171  163.2668 C.ar    1  UNL1        0.0583
     15 N         143.6020  143.0889  162.0700 N.ar    1  UNL1       -0.2484
     16 C         142.6495  144.2025  161.7498 C.ar    1  UNL1        0.1023
     17 C         141.4565  144.4444  162.6263 C.ar    1  UNL1        0.0902
     18 C         141.2160  143.5725  163.8230 C.ar    1  UNL1        0.0040
     19 C         142.1685  142.4589  164.1432 C.ar    1  UNL1        0.0113
     20 C         141.9279  141.5871  165.3399 C.3     1  UNL1        0.1213
     21 C         140.5040  145.5580  162.3061 C.3     1  UNL1        0.4200
     22 F         139.5515  146.6717  161.9859 F       1  UNL1       -0.1658
     23 F         141.0973  145.6707  160.9330 F       1  UNL1       -0.1658
     24 F         139.9106  145.4453  163.6791 F       1  UNL1       -0.1658
     25 N         138.5423  139.0960  165.2694 N.3     1  UNL1       -0.2975
     26 H         138.9805  138.3253  164.7651 H       1  UNL1        0.1232
     27 C         138.0405  139.7560  162.8072 C.3     1  UNL1        0.1591
     28 C         137.6934  140.7993  161.7869 C.3     1  UNL1        0.1729
     29 O         137.5012  142.2260  162.2084 O.3     1  UNL1       -0.3511
     30 C         137.6559  142.6093  163.6504 C.3     1  UNL1        0.1437
     31 C         138.0030  141.5660  164.6707 C.3     1  UNL1        0.0503
     32 C         138.1953  140.1393  164.2491 C.3     1  UNL1        0.0865
     33 C         139.5086  137.9103  161.7173 C.3     1  UNL1        0.1742
     34 O         138.2328  138.3294  162.3856 O.3     1  UNL1       -0.3496
@<TRIPOS>BOND
     1    33    34    1
     2    27    34    1
     3    27    28    1
     4    28    29    1
     5    29    30    1
     6    30    31    1
     7    31    32    1
     8    32    25    1
     9     1    25    1
    10     1     2    1
    11     3     2    1
    12     3     4    1
    13     4     5    1
    14     5     6    1
    15     6     7    1
    16     7     9    1
    17     9    10    2
    18     9    11   am
    19    11    12    1
    20    12    13    1
    21    13    14    1
    22    14    15   ar
    23    15    16   ar
    24    16    17   ar
    25    17    21    1
    26    21    22    1
    27    21    23    1
    28    21    24    1
    29    17    18   ar
    30    18    19   ar
    31    19    20    1
    32     7     8    1
    33    32    27    1
    34     8     1    1
    35     7     3    1
    36    20    11    1
    37    19    14   ar
    38    25    26    1
@<TRIPOS>MOLECULE
*****
 34 38 0 0 0
SMALL
GASTEIGER

@<TRIPOS>ATOM
      1 C         139.2681  138.2935  165.1275 C.3     1  UNL1        0.0545
      2 C         138.3434  138.6786  166.2440 C.3     1  UNL1        0.0162
      3 C         139.1446  139.4151  167.2763 C.3     1  UNL1        0.0095
      4 C         139.0684  140.1083  168.6043 C.3     1  UNL1        0.0005
      5 C         140.4411  140.6068  168.9465 C.3     1  UNL1        0.0005
      6 C         141.3658  140.2216  167.8300 C.3     1  UNL1        0.0087
      7 C         140.5646  139.4852  166.7978 C.3     1  UNL1        0.0704
      8 C         140.6409  138.7919  165.4698 C.3     1  UNL1        0.0243
      9 C         141.9845  139.5552  166.3192 C.2     1  UNL1        0.2250
     10 O         142.9936  138.5636  166.8176 O.2     1  UNL1       -0.2749
     11 N         142.3952  140.6168  165.3423 N.am    1  UNL1       -0.2750
     12 C         143.8151  140.6868  164.8638 C.3     1  UNL1        0.1000
     13 C         144.2258  141.7484  163.8870 C.3     1  UNL1        0.0670
     14 C         143.2167  142.7400  163.3887 C.ar    1  UNL1        0.0583
     15 N         143.6274  143.8016  162.4118 N.ar    1  UNL1       -0.2484
     16 C         142.6183  144.7932  161.9134 C.ar    1  UNL1        0.1023
     17 C         141.1983  144.7232  162.3920 C.ar    1  UNL1        0.0902
     18 C         140.7876  143.6616  163.3688 C.ar    1  UNL1        0.0040
     19 C         141.7968  142.6700  163.8672 C.ar    1  UNL1        0.0113
     20 C         141.3861  141.6084  164.8440 C.3     1  UNL1        0.1213
     21 C         140.1892  145.7148  161.8937 C.3     1  UNL1        0.4200
     22 F         139.1800  146.7064  161.3953 F       1  UNL1       -0.1658
     23 F         140.9221  145.8045  160.5880 F       1  UNL1       -0.1658
     24 F         139.4562  145.6251  163.1993 F       1  UNL1       -0.1658
     25 N         138.8870  137.5418  163.8866 N.3     1  UNL1       -0.2975
     26 H         139.5227  136.7472  163.8167 H       1  UNL1        0.1232
     27 C         140.1147  138.1174  161.6704 C.3     1  UNL1        0.1591
     28 C         140.1365  138.8079  160.3389 C.3     1  UNL1        0.1729
     29 O         138.9524  139.6131  159.8921 O.3     1  UNL1       -0.3511
     30 C         137.7465  139.7279  160.7768 C.3     1  UNL1        0.1437
     31 C         137.7247  139.0375  162.1083 C.3     1  UNL1        0.0503
     32 C         138.9088  138.2322  162.5551 C.3     1  UNL1        0.0865
     33 C         142.5871  137.9997  162.4597 C.3     1  UNL1        0.1742
     34 O         141.2987  137.3122  162.1172 O.3     1  UNL1       -0.3496
@<TRIPOS>BOND
     1    33    34    1
     2    27    34    1
     3    27    28    1
     4    28    29    1
     5    29    30    1
     6    30    31    1
     7    31    32    1
     8    32    25    1
     9     1    25    1
    10     1     2    1
    11     3     2    1
    12     3     4    1
    13     4     5    1
    14     5     6    1
    15     6     7    1
    16     7     9    1
    17     9    10    2
    18     9    11   am
    19    11    12    1
    20    12    13    1
    21    13    14    1
    22    14    15   ar
    23    15    16   ar
    24    16    17   ar
    25    17    21    1
    26    21    22    1
    27    21    23    1
    28    21    24    1
    29    17    18   ar
    30    18    19   ar
    31    19    20    1
    32     7     8    1
    33    32    27    1
    34     8     1    1
    35     7     3    1
    36    20    11    1
    37    19    14   ar
    38    25    26    1
@<TRIPOS>MOLECULE
*****
 34 38 0 0 0
SMALL
GASTEIGER

@<TRIPOS>ATOM
      1 C         139.1826  138.8571  165.9129 C.3     1  UNL1        0.0545
      2 C         138.3779  139.2610  167.1126 C.3     1  UNL1        0.0162
      3 C         139.3121  139.8768  168.1115 C.3     1  UNL1        0.0095
      4 C         139.3922  140.5070  169.4703 C.3     1  UNL1        0.0005
      5 C         140.8239  140.8733  169.7278 C.3     1  UNL1        0.0005
      6 C         141.6286  140.4695  168.5281 C.3     1  UNL1        0.0087
      7 C         140.6943  139.8536  167.5292 C.3     1  UNL1        0.0704
      8 C         140.6142  139.2234  166.1703 C.3     1  UNL1        0.0243
      9 C         142.0765  139.8304  166.9468 C.2     1  UNL1        0.2250
     10 O         143.0915  138.8541  167.4629 O.2     1  UNL1       -0.2749
     11 N         142.4436  140.7836  165.8482 N.am    1  UNL1       -0.2750
     12 C         143.8257  140.7604  165.2659 C.3     1  UNL1        0.1000
     13 C         144.1927  141.7135  164.1674 C.3     1  UNL1        0.0670
     14 C         143.1777  142.6899  163.6512 C.ar    1  UNL1        0.0583
     15 N         143.5448  143.6431  162.5527 N.ar    1  UNL1       -0.2484
     16 C         142.5298  144.6194  162.0366 C.ar    1  UNL1        0.1023
     17 C         141.1476  144.6426  162.6190 C.ar    1  UNL1        0.0902
     18 C         140.7805  143.6895  163.7175 C.ar    1  UNL1        0.0040
     19 C         141.7956  142.7131  164.2336 C.ar    1  UNL1        0.0113
     20 C         141.4285  141.7600  165.3321 C.3     1  UNL1        0.1213
     21 C         140.1325  145.6190  162.1029 C.3     1  UNL1        0.4200
     22 F         139.1175  146.5953  161.5867 F       1  UNL1       -0.1658
     23 F         139.3523  145.4812  163.3765 F       1  UNL1       -0.1658
     24 F         140.9127  145.7568  160.8292 F       1  UNL1       -0.1658
     25 N         138.6493  138.2020  164.6733 N.3     1  UNL1       -0.2975
     26 H         138.8948  137.2138  164.7336 H       1  UNL1        0.1232
     27 C         138.7169  140.0486  162.8470 C.3     1  UNL1        0.1591
     28 C         139.1634  140.5240  161.4962 C.3     1  UNL1        0.1729
     29 O         139.9886  139.6281  160.6208 O.3     1  UNL1       -0.3511
     30 C         140.3675  138.2568  161.0963 C.3     1  UNL1        0.1437
     31 C         139.9210  137.7814  162.4471 C.3     1  UNL1        0.0503
     32 C         139.0958  138.6774  163.3225 C.3     1  UNL1        0.0865
     33 C         137.4211  142.2718  163.2056 C.3     1  UNL1        0.1742
     34 O         137.8917  140.9445  163.7224 O.3     1  UNL1       -0.3496
@<TRIPOS>BOND
     1    33    34    1
     2    27    34    1
     3    27    28    1
     4    28    29    1
     5    29    30    1
     6    30    31    1
     7    31    32    1
     8    32    25    1
     9     1    25    1
    10     1     2    1
    11     3     2    1
    12     3     4    1
    13     4     5    1
    14     5     6    1
    15     6     7    1
    16     7     9    1
    17     9    10    2
    18     9    11   am
    19    11    12    1
    20    12    13    1
    21    13    14    1
    22    14    15   ar
    23    15    16   ar
    24    16    17   ar
    25    17    21    1
    26    21    22    1
    27    21    23    1
    28    21    24    1
    29    17    18   ar
    30    18    19   ar
    31    19    20    1
    32     7     8    1
    33    32    27    1
    34     8     1    1
    35     7     3    1
    36    20    11    1
    37    19    14   ar
    38    25    26    1
@<TRIPOS>MOLECULE
*****
 34 38 0 0 0
SMALL
GASTEIGER

@<TRIPOS>ATOM
      1 C         140.8881  141.5762  162.2941 C.3     1  UNL1        0.0545
      2 C         139.4661  141.3381  161.8803 C.3     1  UNL1        0.0162
      3 C         139.1116  139.9238  162.2324 C.3     1  UNL1        0.0095
      4 C         138.0136  138.9025  162.1943 C.3     1  UNL1        0.0005
      5 C         138.5379  137.6353  162.8021 C.3     1  UNL1        0.0005
      6 C         139.9599  137.8735  163.2159 C.3     1  UNL1        0.0087
      7 C         140.3144  139.2878  162.8638 C.3     1  UNL1        0.0704
      8 C         141.4124  140.3091  162.9020 C.3     1  UNL1        0.0243
      9 C         141.5173  138.6518  163.4952 C.2     1  UNL1        0.2250
     10 O         142.3794  137.7200  162.6961 O.2     1  UNL1       -0.2749
     11 N         141.8581  138.9477  164.9257 N.am    1  UNL1       -0.2750
     12 C         143.0610  138.3117  165.5571 C.3     1  UNL1        0.1000
     13 C         143.4018  138.6076  166.9876 C.3     1  UNL1        0.0670
     14 C         142.5397  139.5394  167.7867 C.ar    1  UNL1        0.0583
     15 N         142.8806  139.8353  169.2172 N.ar    1  UNL1       -0.2484
     16 C         142.0185  140.7671  170.0163 C.ar    1  UNL1        0.1023
     17 C         140.8156  141.4031  169.3849 C.ar    1  UNL1        0.0902
     18 C         140.4748  141.1072  167.9544 C.ar    1  UNL1        0.0040
     19 C         141.3369  140.1754  167.1553 C.ar    1  UNL1        0.0113
     20 C         140.9961  139.8795  165.7248 C.3     1  UNL1        0.1213
     21 C         139.9535  142.3349  170.1839 C.3     1  UNL1        0.4200
     22 F         139.0915  143.2667  170.9830 F       1  UNL1       -0.1658
     23 F         141.0328  143.3755  170.1348 F       1  UNL1       -0.1658
     24 F         138.8743  141.2943  170.2331 F       1  UNL1       -0.1658
     25 N         141.6518  142.8567  162.1291 N.3     1  UNL1       -0.2975
     26 H         141.9596  143.1381  163.0600 H       1  UNL1        0.1232
     27 C         140.3981  145.1174  162.3893 C.3     1  UNL1        0.1591
     28 C         139.7337  146.3128  161.7732 C.3     1  UNL1        0.1729
     29 O         139.6586  146.4430  160.2808 O.3     1  UNL1       -0.3511
     30 C         140.2479  145.3777  159.4044 C.3     1  UNL1        0.1437
     31 C         140.9123  144.1823  160.0205 C.3     1  UNL1        0.0503
     32 C         140.9874  144.0521  161.5130 C.3     1  UNL1        0.0865
     33 C         139.3247  144.3923  164.6415 C.3     1  UNL1        0.1742
     34 O         140.4732  144.9872  163.8817 O.3     1  UNL1       -0.3496
@<TRIPOS>BOND
     1    33    34    1
     2    27    34    1
     3    27    28    1
     4    28    29    1
     5    29    30    1
     6    30    31    1
     7    31    32    1
     8    32    25    1
     9     1    25    1
    10     1     2    1
    11     3     2    1
    12     3     4    1
    13     4     5    1
    14     5     6    1
    15     6     7    1
    16     7     9    1
    17     9    10    2
    18     9    11   am
    19    11    12    1
    20    12    13    1
    21    13    14    1
    22    14    15   ar
    23    15    16   ar
    24    16    17   ar
    25    17    21    1
    26    21    22    1
    27    21    23    1
    28    21    24    1
    29    17    18   ar
    30    18    19   ar
    31    19    20    1
    32     7     8    1
    33    32    27    1
    34     8     1    1
    35     7     3    1
    36    20    11    1
    37    19    14   ar
    38    25    26    1
@<TRIPOS>MOLECULE
*****
 34 38 0 0 0
SMALL
GASTEIGER

@<TRIPOS>ATOM
      1 C         140.6186  137.7217  163.7396 C.3     1  UNL1        0.0545
      2 C         139.1794  137.5892  164.1411 C.3     1  UNL1        0.0162
      3 C         138.9880  138.3299  165.4313 C.3     1  UNL1        0.0095
      4 C         137.9803  138.7057  166.4769 C.3     1  UNL1        0.0005
      5 C         138.6783  139.5284  167.5190 C.3     1  UNL1        0.0005
      6 C         140.1175  139.6609  167.1175 C.3     1  UNL1        0.0087
      7 C         140.3089  138.9202  165.8273 C.3     1  UNL1        0.0704
      8 C         141.3167  138.5444  164.7818 C.3     1  UNL1        0.0243
      9 C         141.6298  139.5106  166.2232 C.2     1  UNL1        0.2250
     10 O         142.5346  138.7645  167.1584 O.2     1  UNL1       -0.2749
     11 N         142.0459  140.8470  165.6839 N.am    1  UNL1       -0.2750
     12 C         143.3667  141.4374  166.0798 C.3     1  UNL1        0.1000
     13 C         143.7828  142.7738  165.5405 C.3     1  UNL1        0.0670
     14 C         142.8779  143.5198  164.6053 C.ar    1  UNL1        0.0583
     15 N         143.2940  144.8563  164.0659 N.ar    1  UNL1       -0.2484
     16 C         142.3892  145.6024  163.1307 C.ar    1  UNL1        0.1023
     17 C         141.0682  145.0120  162.7348 C.ar    1  UNL1        0.0902
     18 C         140.6522  143.6756  163.2741 C.ar    1  UNL1        0.0040
     19 C         141.5571  142.9295  164.2094 C.ar    1  UNL1        0.0113
     20 C         141.1410  141.5931  164.7487 C.3     1  UNL1        0.1213
     21 C         140.1634  145.7581  161.7996 C.3     1  UNL1        0.4200
     22 F         139.2586  146.5041  160.8644 F       1  UNL1       -0.1658
     23 F         139.1199  145.8393  162.8740 F       1  UNL1       -0.1658
     24 F         141.2069  145.6768  160.7252 F       1  UNL1       -0.1658
     25 N         141.2491  137.1347  162.5116 N.3     1  UNL1       -0.2975
     26 H         142.1395  136.7309  162.8021 H       1  UNL1        0.1232
     27 C         142.9148  138.5585  161.1159 C.3     1  UNL1        0.1591
     28 C         143.2014  139.4310  159.9299 C.3     1  UNL1        0.1729
     29 O         142.1089  139.7521  158.9536 O.3     1  UNL1       -0.3511
     30 C         140.7297  139.2008  159.1632 C.3     1  UNL1        0.1437
     31 C         140.4431  138.3283  160.3492 C.3     1  UNL1        0.0503
     32 C         141.5357  138.0072  161.3256 C.3     1  UNL1        0.0865
     33 C         144.3426  139.2056  163.1878 C.3     1  UNL1        0.1742
     34 O         144.0073  138.2374  162.0922 O.3     1  UNL1       -0.3496
@<TRIPOS>BOND
     1    33    34    1
     2    27    34    1
     3    27    28    1
     4    28    29    1
     5    29    30    1
     6    30    31    1
     7    31    32    1
     8    32    25    1
     9     1    25    1
    10     1     2    1
    11     3     2    1
    12     3     4    1
    13     4     5    1
    14     5     6    1
    15     6     7    1
    16     7     9    1
    17     9    10    2
    18     9    11   am
    19    11    12    1
    20    12    13    1
    21    13    14    1
    22    14    15   ar
    23    15    16   ar
    24    16    17   ar
    25    17    21    1
    26    21    22    1
    27    21    23    1
    28    21    24    1
    29    17    18   ar
    30    18    19   ar
    31    19    20    1
    32     7     8    1
    33    32    27    1
    34     8     1    1
    35     7     3    1
    36    20    11    1
    37    19    14   ar
    38    25    26    1
@<TRIPOS>MOLECULE
*****
 34 38 0 0 0
SMALL
GASTEIGER

@<TRIPOS>ATOM
      1 C         140.8434  141.3088  161.4314 C.3     1  UNL1        0.0545
      2 C         139.3758  141.0738  161.2290 C.3     1  UNL1        0.0162
      3 C         139.0266  139.7563  161.8552 C.3     1  UNL1        0.0095
      4 C         137.9038  138.7967  162.1171 C.3     1  UNL1        0.0005
      5 C         138.4617  137.6244  162.8683 C.3     1  UNL1        0.0005
      6 C         139.9293  137.8593  163.0707 C.3     1  UNL1        0.0087
      7 C         140.2784  139.1769  162.4446 C.3     1  UNL1        0.0704
      8 C         141.4012  140.1364  162.1827 C.3     1  UNL1        0.0243
      9 C         141.5302  138.5976  163.0339 C.2     1  UNL1        0.2250
     10 O         142.4359  137.7522  162.1882 O.2     1  UNL1       -0.2749
     11 N         141.8764  138.8636  164.4690 N.am    1  UNL1       -0.2750
     12 C         143.1282  138.2842  165.0584 C.3     1  UNL1        0.1000
     13 C         143.4743  138.5503  166.4934 C.3     1  UNL1        0.0670
     14 C         142.5687  139.3956  167.3391 C.ar    1  UNL1        0.0583
     15 N         142.9149  139.6617  168.7742 N.ar    1  UNL1       -0.2484
     16 C         142.0092  140.5070  169.6199 C.ar    1  UNL1        0.1023
     17 C         140.7574  141.0864  169.0305 C.ar    1  UNL1        0.0902
     18 C         140.4112  140.8203  167.5954 C.ar    1  UNL1        0.0040
     19 C         141.3169  139.9750  166.7497 C.ar    1  UNL1        0.0113
     20 C         140.9708  139.7089  165.3147 C.3     1  UNL1        0.1213
     21 C         139.8517  141.9317  169.8761 C.3     1  UNL1        0.4200
     22 F         138.9461  142.7771  170.7218 F       1  UNL1       -0.1658
     23 F         140.8465  143.0530  169.8206 F       1  UNL1       -0.1658
     24 F         138.8569  140.8104  169.9317 F       1  UNL1       -0.1658
     25 N         141.6173  142.5060  160.9646 N.3     1  UNL1       -0.2975
     26 H         142.4312  142.1526  160.4615 H       1  UNL1        0.1232
     27 C         143.5924  143.5901  162.2582 C.3     1  UNL1        0.1591
     28 C         144.0997  144.5903  163.2543 C.3     1  UNL1        0.1729
     29 O         143.1393  145.5066  163.9529 O.3     1  UNL1       -0.3511
     30 C         141.6715  145.4227  163.6553 C.3     1  UNL1        0.1437
     31 C         141.1641  144.4225  162.6592 C.3     1  UNL1        0.0503
     32 C         142.1246  143.5062  161.9607 C.3     1  UNL1        0.0865
     33 C         144.8862  141.3393  162.1580 C.3     1  UNL1        0.1742
     34 O         144.5528  142.6738  161.5597 O.3     1  UNL1       -0.3496
@<TRIPOS>BOND
     1    33    34    1
     2    27    34    1
     3    27    28    1
     4    28    29    1
     5    29    30    1
     6    30    31    1
     7    31    32    1
     8    32    25    1
     9     1    25    1
    10     1     2    1
    11     3     2    1
    12     3     4    1
    13     4     5    1
    14     5     6    1
    15     6     7    1
    16     7     9    1
    17     9    10    2
    18     9    11   am
    19    11    12    1
    20    12    13    1
    21    13    14    1
    22    14    15   ar
    23    15    16   ar
    24    16    17   ar
    25    17    21    1
    26    21    22    1
    27    21    23    1
    28    21    24    1
    29    17    18   ar
    30    18    19   ar
    31    19    20    1
    32     7     8    1
    33    32    27    1
    34     8     1    1
    35     7     3    1
    36    20    11    1
    37    19    14   ar
    38    25    26    1
@<TRIPOS>MOLECULE
*****
 34 38 0 0 0
SMALL
GASTEIGER

@<TRIPOS>ATOM
      1 C         140.5638  141.6281  161.1686 C.3     1  UNL1        0.0545
      2 C         139.0986  141.3648  160.9847 C.3     1  UNL1        0.0162
      3 C         138.8057  139.9894  161.5067 C.3     1  UNL1        0.0095
      4 C         137.7191  138.9767  161.7157 C.3     1  UNL1        0.0005
      5 C         138.3318  137.7640  162.3515 C.3     1  UNL1        0.0005
      6 C         139.7970  138.0273  162.5354 C.3     1  UNL1        0.0087
      7 C         140.0899  139.4027  162.0133 C.3     1  UNL1        0.0704
      8 C         141.1764  140.4155  161.8043 C.3     1  UNL1        0.0243
      9 C         141.3741  138.8160  162.5199 C.2     1  UNL1        0.2250
     10 O         142.2909  138.0924  161.5786 O.2     1  UNL1       -0.2749
     11 N         141.7415  138.9528  163.9678 N.am    1  UNL1       -0.2750
     12 C         143.0257  138.3661  164.4744 C.3     1  UNL1        0.1000
     13 C         143.3931  138.5030  165.9222 C.3     1  UNL1        0.0670
     14 C         142.4763  139.2265  166.8635 C.ar    1  UNL1        0.0583
     15 N         142.8437  139.3634  168.3114 N.ar    1  UNL1       -0.2484
     16 C         141.9270  140.0869  169.2526 C.ar    1  UNL1        0.1023
     17 C         140.6427  140.6736  168.7460 C.ar    1  UNL1        0.0902
     18 C         140.2753  140.5368  167.2982 C.ar    1  UNL1        0.0040
     19 C         141.1921  139.8132  166.3569 C.ar    1  UNL1        0.0113
     20 C         140.8247  139.6764  164.9091 C.3     1  UNL1        0.1213
     21 C         139.7259  141.3972  169.6873 C.3     1  UNL1        0.4200
     22 F         138.8092  142.1207  170.6285 F       1  UNL1       -0.1658
     23 F         139.2163  140.0832  170.2009 F       1  UNL1       -0.1658
     24 F         140.2356  142.7111  169.1736 F       1  UNL1       -0.1658
     25 N         141.2891  142.8837  160.7843 N.3     1  UNL1       -0.2975
     26 H         141.8968  142.6445  160.0008 H       1  UNL1        0.1232
     27 C         141.5369  144.6409  162.6818 C.3     1  UNL1        0.1591
     28 C         142.3896  145.3529  163.6898 C.3     1  UNL1        0.1729
     29 O         143.8473  145.0196  163.8081 O.3     1  UNL1       -0.3511
     30 C         144.4523  143.9743  162.9184 C.3     1  UNL1        0.1437
     31 C         143.5996  143.2623  161.9105 C.3     1  UNL1        0.0503
     32 C         142.1418  143.5956  161.7922 C.3     1  UNL1        0.0865
     33 C         139.6467  146.1826  161.7870 C.3     1  UNL1        0.1742
     34 O         140.0792  144.9742  162.5635 O.3     1  UNL1       -0.3496
@<TRIPOS>BOND
     1    33    34    1
     2    27    34    1
     3    27    28    1
     4    28    29    1
     5    29    30    1
     6    30    31    1
     7    31    32    1
     8    32    25    1
     9     1    25    1
    10     1     2    1
    11     3     2    1
    12     3     4    1
    13     4     5    1
    14     5     6    1
    15     6     7    1
    16     7     9    1
    17     9    10    2
    18     9    11   am
    19    11    12    1
    20    12    13    1
    21    13    14    1
    22    14    15   ar
    23    15    16   ar
    24    16    17   ar
    25    17    21    1
    26    21    22    1
    27    21    23    1
    28    21    24    1
    29    17    18   ar
    30    18    19   ar
    31    19    20    1
    32     7     8    1
    33    32    27    1
    34     8     1    1
    35     7     3    1
    36    20    11    1
    37    19    14   ar
    38    25    26    1
@<TRIPOS>MOLECULE
*****
 34 38 0 0 0
SMALL
GASTEIGER

@<TRIPOS>ATOM
      1 C         142.0594  144.7604  162.2958 C.3     1  UNL1        0.0545
      2 C         142.5514  145.3391  163.5893 C.3     1  UNL1        0.0162
      3 C         143.5723  144.3993  164.1589 C.3     1  UNL1        0.0095
      4 C         144.5074  144.1761  165.3103 C.3     1  UNL1        0.0005
      5 C         145.2242  142.8787  165.0806 C.3     1  UNL1        0.0005
      6 C         144.7322  142.3000  163.7871 C.3     1  UNL1        0.0087
      7 C         143.7113  143.2398  163.2175 C.3     1  UNL1        0.0704
      8 C         142.7762  143.4630  162.0661 C.3     1  UNL1        0.0243
      9 C         143.8502  142.0803  162.2761 C.2     1  UNL1        0.2250
     10 O         144.8691  142.1251  161.1762 O.2     1  UNL1       -0.2749
     11 N         142.9701  140.8759  162.4346 N.am    1  UNL1       -0.2750
     12 C         143.1091  139.7164  161.4932 C.3     1  UNL1        0.1000
     13 C         142.2290  138.5121  161.6516 C.3     1  UNL1        0.0670
     14 C         141.2101  138.4673  162.7515 C.ar    1  UNL1        0.0583
     15 N         140.3300  137.2629  162.9100 N.ar    1  UNL1       -0.2484
     16 C         139.3111  137.2181  164.0099 C.ar    1  UNL1        0.1023
     17 C         139.1722  138.3777  164.9513 C.ar    1  UNL1        0.0902
     18 C         140.0522  139.5820  164.7928 C.ar    1  UNL1        0.0040
     19 C         141.0712  139.6268  163.6929 C.ar    1  UNL1        0.0113
     20 C         141.9512  140.8311  163.5344 C.3     1  UNL1        0.1213
     21 C         138.1532  138.3328  166.0512 C.3     1  UNL1        0.4200
     22 F         137.1343  138.2880  167.1510 F       1  UNL1       -0.1658
     23 F         138.1445  139.8319  166.1042 F       1  UNL1       -0.1658
     24 F         138.1620  136.8338  165.9982 F       1  UNL1       -0.1658
     25 N         141.0310  145.3718  161.3910 N.3     1  UNL1       -0.2975
     26 H         140.3479  145.8338  161.9913 H       1  UNL1        0.1232
     27 C         139.2868  143.4924  160.9719 C.3     1  UNL1        0.1591
     28 C         138.5133  142.6262  160.0225 C.3     1  UNL1        0.1729
     29 O         138.7103  142.7733  158.5428 O.3     1  UNL1       -0.3511
     30 C         139.6809  143.7866  158.0124 C.3     1  UNL1        0.1437
     31 C         140.4545  144.6528  158.9618 C.3     1  UNL1        0.0503
     32 C         140.2574  144.5057  160.4416 C.3     1  UNL1        0.0865
     33 C         137.8075  143.7962  163.0860 C.3     1  UNL1        0.1742
     34 O         139.0898  143.3454  162.4516 O.3     1  UNL1       -0.3496
@<TRIPOS>BOND
     1    33    34    1
     2    27    34    1
     3    27    28    1
     4    28    29    1
     5    29    30    1
     6    30    31    1
     7    31    32    1
     8    32    25    1
     9     1    25    1
    10     1     2    1
    11     3     2    1
    12     3     4    1
    13     4     5    1
    14     5     6    1
    15     6     7    1
    16     7     9    1
    17     9    10    2
    18     9    11   am
    19    11    12    1
    20    12    13    1
    21    13    14    1
    22    14    15   ar
    23    15    16   ar
    24    16    17   ar
    25    17    21    1
    26    21    22    1
    27    21    23    1
    28    21    24    1
    29    17    18   ar
    30    18    19   ar
    31    19    20    1
    32     7     8    1
    33    32    27    1
    34     8     1    1
    35     7     3    1
    36    20    11    1
    37    19    14   ar
    38    25    26    1
