@<TRIPOS>MOLECULE
*****
 36 39 0 0 0
SMALL
GASTEIGER

@<TRIPOS>ATOM
      1 C         139.6231  143.6098  159.8910 C.3     1  UNL1        0.0743
      2 C         140.0336  142.9365  158.6150 C.3     1  UNL1        0.0197
      3 C         141.0895  143.5543  157.7470 C.3     1  UNL1        0.0017
      4 C         141.7348  144.8455  158.1550 C.3     1  UNL1        0.0002
      5 C         141.3243  145.5188  159.4310 C.3     1  UNL1        0.0030
      6 C         140.2684  144.9009  160.2990 C.3     1  UNL1        0.0340
      7 N         137.8498  141.2034  162.5015 N.am    1  UNL1       -0.2683
      8 C         138.9057  141.8212  161.6335 C.2     1  UNL1        0.3044
      9 O         140.3001  141.2682  161.6400 O.2     1  UNL1       -0.2525
     10 N         138.5672  142.9920  160.7589 N.am    1  UNL1       -0.2903
     11 H         136.9347  141.5663  162.4972 H       1  UNL1        0.1564
     12 H         137.6521  143.3549  160.7547 H       1  UNL1        0.1509
     13 C         138.4330  138.9881  165.7423 C.ar    1  UNL1        0.0359
     14 C         138.8652  137.6912  165.1251 C.ar    1  UNL1        0.0029
     15 C         138.9590  137.5649  163.6334 C.ar    1  UNL1        0.0014
     16 C         138.6206  138.7356  162.7588 C.ar    1  UNL1        0.0147
     17 C         138.1883  140.0326  163.3760 C.ar    1  UNL1        0.0517
     18 C         138.0945  140.1588  164.8677 C.ar    1  UNL1        0.0176
     19 C         139.2587  140.0454  167.9672 C.3     1  UNL1        0.0773
     20 C         138.3391  139.1144  167.2340 C.2     1  UNL1        0.1735
     21 O         137.3258  138.3097  167.9925 O.2     1  UNL1       -0.2913
     22 C         139.8579  145.5742  161.5749 C.3     1  UNL1        0.0737
     23 N         139.9549  144.8362  162.8773 N.3     1  UNL1       -0.2726
     24 C         138.7470  144.7051  163.7569 C.3     1  UNL1        0.0721
     25 C         138.8441  143.9671  165.0591 C.3     1  UNL1        0.0174
     26 C         140.1491  143.3602  165.4818 C.3     1  UNL1        0.0031
     27 C         141.3570  143.4912  164.6022 C.3     1  UNL1        0.0204
     28 C         141.2599  144.2292  163.2999 C.3     1  UNL1        0.0724
     29 C         142.6620  142.8843  165.0248 C.3     1  UNL1        0.0277
     30 C         142.6832  141.7919  166.0525 C.ar    1  UNL1       -0.0220
     31 C         142.8504  142.1310  167.5042 C.ar    1  UNL1       -0.0020
     32 C         142.8716  141.0386  168.5319 C.ar    1  UNL1        0.0293
     33 C         142.7255  139.6072  168.1081 C.ar    1  UNL1        0.1401
     34 F         142.7467  138.5148  169.1359 F       1  UNL1       -0.2042
     35 C         142.5582  139.2681  166.6566 C.ar    1  UNL1        0.0293
     36 C         142.5371  140.3605  165.6287 C.ar    1  UNL1       -0.0020
@<TRIPOS>BOND
     1    19    20    1
     2    20    21    2
     3    20    13    1
     4    13    14   ar
     5    14    15   ar
     6    15    16   ar
     7    16    17   ar
     8    17     7    1
     9     7     8   am
    10     8     9    2
    11     8    10   am
    12     1    10    1
    13     1     2    1
    14     2     3    1
    15     3     4    1
    16     4     5    1
    17     5     6    1
    18     6    22    1
    19    22    23    1
    20    23    24    1
    21    24    25    1
    22    25    26    1
    23    26    27    1
    24    27    29    1
    25    29    30    1
    26    30    31   ar
    27    31    32   ar
    28    32    33   ar
    29    33    34    1
    30    33    35   ar
    31    35    36   ar
    32    27    28    1
    33    17    18   ar
    34    18    13   ar
    35     6     1    1
    36    28    23    1
    37    36    30   ar
    38     7    11    1
    39    10    12    1
@<TRIPOS>MOLECULE
*****
 36 39 0 0 0
SMALL
GASTEIGER

@<TRIPOS>ATOM
      1 C         139.6281  143.6992  159.6996 C.3     1  UNL1        0.0743
      2 C         139.9842  142.9990  158.4218 C.3     1  UNL1        0.0197
      3 C         141.0276  143.5797  157.5140 C.3     1  UNL1        0.0017
      4 C         141.7149  144.8606  157.8840 C.3     1  UNL1        0.0002
      5 C         141.3588  145.5609  159.1619 C.3     1  UNL1        0.0030
      6 C         140.3153  144.9801  160.0697 C.3     1  UNL1        0.0340
      7 N         137.8643  141.3415  162.3604 N.am    1  UNL1       -0.2683
      8 C         138.9077  141.9222  161.4527 C.2     1  UNL1        0.3044
      9 O         140.2741  141.3065  161.3901 O.2     1  UNL1       -0.2525
     10 N         138.5847  143.1186  160.6074 N.am    1  UNL1       -0.2903
     11 H         136.9675  141.7456  162.4015 H       1  UNL1        0.1564
     12 H         137.6879  143.5227  160.6484 H       1  UNL1        0.1509
     13 C         138.5381  139.0720  165.5456 C.ar    1  UNL1        0.0359
     14 C         138.8332  137.7525  164.8962 C.ar    1  UNL1        0.0029
     15 C         138.8053  137.6293  163.4016 C.ar    1  UNL1        0.0014
     16 C         138.4823  138.8256  162.5563 C.ar    1  UNL1        0.0147
     17 C         138.1873  140.1451  163.2057 C.ar    1  UNL1        0.0517
     18 C         138.2151  140.2683  164.7004 C.ar    1  UNL1        0.0176
     19 C         139.6312  140.0153  167.7055 C.3     1  UNL1        0.0773
     20 C         138.5659  139.1952  167.0403 C.2     1  UNL1        0.1735
     21 O         137.5285  138.4984  167.8698 O.2     1  UNL1       -0.2913
     22 C         139.9592  145.6803  161.3475 C.3     1  UNL1        0.0737
     23 N         139.9876  144.9308  162.6465 N.3     1  UNL1       -0.2726
     24 C         138.7861  144.9404  163.5444 C.3     1  UNL1        0.0721
     25 C         138.8146  144.1909  164.8434 C.3     1  UNL1        0.0174
     26 C         140.0445  143.4318  165.2445 C.3     1  UNL1        0.0031
     27 C         141.2460  143.4221  164.3466 C.3     1  UNL1        0.0204
     28 C         141.2176  144.1716  163.0476 C.3     1  UNL1        0.0724
     29 C         142.4760  142.6630  164.7477 C.3     1  UNL1        0.0277
     30 C         142.8335  141.3880  164.0430 C.ar    1  UNL1       -0.0220
     31 C         141.9854  140.1648  164.2292 C.ar    1  UNL1       -0.0020
     32 C         142.3430  138.8899  163.5246 C.ar    1  UNL1        0.0293
     33 C         143.5486  138.8380  162.6336 C.ar    1  UNL1        0.1401
     34 F         143.9061  137.5630  161.9289 F       1  UNL1       -0.2042
     35 C         144.3966  140.0611  162.4473 C.ar    1  UNL1        0.0293
     36 C         144.0391  141.3362  163.1520 C.ar    1  UNL1       -0.0020
@<TRIPOS>BOND
     1    19    20    1
     2    20    21    2
     3    20    13    1
     4    13    14   ar
     5    14    15   ar
     6    15    16   ar
     7    16    17   ar
     8    17     7    1
     9     7     8   am
    10     8     9    2
    11     8    10   am
    12     1    10    1
    13     1     2    1
    14     2     3    1
    15     3     4    1
    16     4     5    1
    17     5     6    1
    18     6    22    1
    19    22    23    1
    20    23    24    1
    21    24    25    1
    22    25    26    1
    23    26    27    1
    24    27    29    1
    25    29    30    1
    26    30    31   ar
    27    31    32   ar
    28    32    33   ar
    29    33    34    1
    30    33    35   ar
    31    35    36   ar
    32    27    28    1
    33    17    18   ar
    34    18    13   ar
    35     6     1    1
    36    28    23    1
    37    36    30   ar
    38     7    11    1
    39    10    12    1
@<TRIPOS>MOLECULE
*****
 36 39 0 0 0
SMALL
GASTEIGER

@<TRIPOS>ATOM
      1 C         142.3013  143.6477  160.7752 C.3     1  UNL1        0.0743
      2 C         143.4132  142.8618  160.1459 C.3     1  UNL1        0.0197
      3 C         143.3225  142.4560  158.7047 C.3     1  UNL1        0.0017
      4 C         142.1197  142.8360  157.8928 C.3     1  UNL1        0.0002
      5 C         141.0078  143.6218  158.5221 C.3     1  UNL1        0.0030
      6 C         141.0986  144.0276  159.9634 C.3     1  UNL1        0.0340
      7 N         142.1041  143.4876  164.7357 N.am    1  UNL1       -0.2683
      8 C         142.0133  143.0817  163.2945 C.2     1  UNL1        0.3044
      9 O         141.5439  141.7042  162.9314 O.2     1  UNL1       -0.2525
     10 N         142.3921  144.0535  162.2164 N.am    1  UNL1       -0.2903
     11 H         142.4122  144.3918  164.9740 H       1  UNL1        0.1564
     12 H         142.7002  144.9577  162.4547 H       1  UNL1        0.1509
     13 C         142.1628  140.3034  167.1038 C.ar    1  UNL1        0.0359
     14 C         140.9681  140.5724  167.9700 C.ar    1  UNL1        0.0029
     15 C         140.1521  141.8130  167.7581 C.ar    1  UNL1        0.0014
     16 C         140.5307  142.7847  166.6801 C.ar    1  UNL1        0.0147
     17 C         141.7254  142.5158  165.8138 C.ar    1  UNL1        0.0517
     18 C         142.5414  141.2752  166.0257 C.ar    1  UNL1        0.0176
     19 C         143.5253  138.3141  166.1364 C.3     1  UNL1        0.0773
     20 C         142.9788  139.0628  167.3156 C.2     1  UNL1        0.1735
     21 O         143.2483  138.5708  168.7068 O.2     1  UNL1       -0.2913
     22 C         139.9867  144.8135  160.5927 C.3     1  UNL1        0.0737
     23 N         139.2564  144.2604  161.7806 N.3     1  UNL1       -0.2726
     24 C         139.0254  145.1217  162.9867 C.3     1  UNL1        0.0721
     25 C         138.2951  144.5686  164.1744 C.3     1  UNL1        0.0174
     26 C         137.7959  143.1543  164.1561 C.3     1  UNL1        0.0031
     27 C         138.0268  142.2930  162.9499 C.3     1  UNL1        0.0204
     28 C         138.7571  142.8461  161.7622 C.3     1  UNL1        0.0724
     29 C         137.5275  140.8787  162.9316 C.3     1  UNL1        0.0277
     30 C         138.4245  139.7608  163.3741 C.ar    1  UNL1       -0.0220
     31 C         138.7613  139.5998  164.8270 C.ar    1  UNL1       -0.0020
     32 C         139.6582  138.4820  165.2695 C.ar    1  UNL1        0.0293
     33 C         140.2185  137.5252  164.2593 C.ar    1  UNL1        0.1401
     34 F         141.1155  136.4073  164.7019 F       1  UNL1       -0.2042
     35 C         139.8818  137.6862  162.8065 C.ar    1  UNL1        0.0293
     36 C         138.9848  138.8040  162.3639 C.ar    1  UNL1       -0.0020
@<TRIPOS>BOND
     1    19    20    1
     2    20    21    2
     3    20    13    1
     4    13    14   ar
     5    14    15   ar
     6    15    16   ar
     7    16    17   ar
     8    17     7    1
     9     7     8   am
    10     8     9    2
    11     8    10   am
    12     1    10    1
    13     1     2    1
    14     2     3    1
    15     3     4    1
    16     4     5    1
    17     5     6    1
    18     6    22    1
    19    22    23    1
    20    23    24    1
    21    24    25    1
    22    25    26    1
    23    26    27    1
    24    27    29    1
    25    29    30    1
    26    30    31   ar
    27    31    32   ar
    28    32    33   ar
    29    33    34    1
    30    33    35   ar
    31    35    36   ar
    32    27    28    1
    33    17    18   ar
    34    18    13   ar
    35     6     1    1
    36    28    23    1
    37    36    30   ar
    38     7    11    1
    39    10    12    1
@<TRIPOS>MOLECULE
*****
 36 39 0 0 0
SMALL
GASTEIGER

@<TRIPOS>ATOM
      1 C         144.1083  140.3304  162.7169 C.3     1  UNL1        0.0743
      2 C         144.7896  141.6353  162.4287 C.3     1  UNL1        0.0197
      3 C         144.8428  142.1595  161.0243 C.3     1  UNL1        0.0017
      4 C         144.2147  141.3788  159.9081 C.3     1  UNL1        0.0002
      5 C         143.5334  140.0739  160.1962 C.3     1  UNL1        0.0030
      6 C         143.4802  139.5497  161.6007 C.3     1  UNL1        0.0340
      7 N         142.9624  139.7937  166.4784 N.am    1  UNL1       -0.2683
      8 C         143.0156  140.3179  165.0740 C.2     1  UNL1        0.3044
      9 O         142.0293  141.3539  164.6223 O.2     1  UNL1       -0.2525
     10 N         144.0551  139.8062  164.1213 N.am    1  UNL1       -0.2903
     11 H         143.6097  139.1138  166.7749 H       1  UNL1        0.1564
     12 H         144.7024  139.1263  164.4177 H       1  UNL1        0.1509
     13 C         141.1482  142.0551  169.1885 C.ar    1  UNL1        0.0359
     14 C         139.8441  141.3290  169.3365 C.ar    1  UNL1        0.0029
     15 C         139.5794  140.0911  168.5318 C.ar    1  UNL1        0.0014
     16 C         140.6188  139.5793  167.5791 C.ar    1  UNL1        0.0147
     17 C         141.9229  140.3055  167.4311 C.ar    1  UNL1        0.0517
     18 C         142.1876  141.5434  168.2358 C.ar    1  UNL1        0.0176
     19 C         140.3781  144.3765  170.0650 C.3     1  UNL1        0.0773
     20 C         141.4129  143.2931  169.9932 C.2     1  UNL1        0.1735
     21 O         142.7125  143.4475  170.7261 O.2     1  UNL1       -0.2913
     22 C         142.7989  138.2448  161.8889 C.3     1  UNL1        0.0737
     23 N         141.5708  138.2140  162.7498 N.3     1  UNL1       -0.2726
     24 C         141.4300  137.1708  163.8183 C.3     1  UNL1        0.0721
     25 C         140.2020  137.1400  164.6791 C.3     1  UNL1        0.0174
     26 C         139.1149  138.1524  164.4714 C.3     1  UNL1        0.0031
     27 C         139.2557  139.1956  163.4029 C.3     1  UNL1        0.0204
     28 C         140.4837  139.2264  162.5421 C.3     1  UNL1        0.0724
     29 C         138.1686  140.2081  163.1952 C.3     1  UNL1        0.0277
     30 C         138.2710  141.5606  163.8355 C.ar    1  UNL1       -0.0220
     31 C         137.6397  142.7517  163.1775 C.ar    1  UNL1       -0.0020
     32 C         137.7422  144.1043  163.8178 C.ar    1  UNL1        0.0293
     33 C         138.4759  144.2658  165.1161 C.ar    1  UNL1        0.1401
     34 F         138.5783  145.6185  165.7564 F       1  UNL1       -0.2042
     35 C         139.1072  143.0748  165.7741 C.ar    1  UNL1        0.0293
     36 C         139.0048  141.7222  165.1338 C.ar    1  UNL1       -0.0020
@<TRIPOS>BOND
     1    19    20    1
     2    20    21    2
     3    20    13    1
     4    13    14   ar
     5    14    15   ar
     6    15    16   ar
     7    16    17   ar
     8    17     7    1
     9     7     8   am
    10     8     9    2
    11     8    10   am
    12     1    10    1
    13     1     2    1
    14     2     3    1
    15     3     4    1
    16     4     5    1
    17     5     6    1
    18     6    22    1
    19    22    23    1
    20    23    24    1
    21    24    25    1
    22    25    26    1
    23    26    27    1
    24    27    29    1
    25    29    30    1
    26    30    31   ar
    27    31    32   ar
    28    32    33   ar
    29    33    34    1
    30    33    35   ar
    31    35    36   ar
    32    27    28    1
    33    17    18   ar
    34    18    13   ar
    35     6     1    1
    36    28    23    1
    37    36    30   ar
    38     7    11    1
    39    10    12    1
@<TRIPOS>MOLECULE
*****
 36 39 0 0 0
SMALL
GASTEIGER

@<TRIPOS>ATOM
      1 C         141.0758  138.3080  162.4102 C.3     1  UNL1        0.0743
      2 C         139.6216  137.9486  162.3329 C.3     1  UNL1        0.0197
      3 C         138.8826  138.0879  161.0350 C.3     1  UNL1        0.0017
      4 C         139.5979  138.5866  159.8144 C.3     1  UNL1        0.0002
      5 C         141.0522  138.9460  159.8918 C.3     1  UNL1        0.0030
      6 C         141.7911  138.8067  161.1898 C.3     1  UNL1        0.0340
      7 N         142.4003  139.0732  166.0722 N.am    1  UNL1       -0.2683
      8 C         141.6614  139.2126  164.7743 C.2     1  UNL1        0.3044
      9 O         140.7690  140.3957  164.5426 O.2     1  UNL1       -0.2525
     10 N         141.8148  138.1687  163.7081 N.am    1  UNL1       -0.2903
     11 H         142.9860  138.2967  166.2243 H       1  UNL1        0.1564
     12 H         142.4005  137.3921  163.8602 H       1  UNL1        0.1509
     13 C         141.0967  140.9649  169.3083 C.ar    1  UNL1        0.0359
     14 C         141.9400  142.2048  169.2709 C.ar    1  UNL1        0.0029
     15 C         142.9367  142.4009  168.1672 C.ar    1  UNL1        0.0014
     16 C         143.0902  141.3571  167.1010 C.ar    1  UNL1        0.0147
     17 C         142.2469  140.1171  167.1385 C.ar    1  UNL1        0.0517
     18 C         141.2502  139.9210  168.2421 C.ar    1  UNL1        0.0176
     19 C         138.6977  140.3452  170.0896 C.3     1  UNL1        0.0773
     20 C         140.1000  140.7688  170.4120 C.2     1  UNL1        0.1735
     21 O         140.5056  140.9962  171.8381 O.2     1  UNL1       -0.2913
     22 C         143.2454  139.1661  161.2672 C.3     1  UNL1        0.0737
     23 N         143.6986  140.2653  162.1817 N.3     1  UNL1       -0.2726
     24 C         144.8505  140.0372  163.1150 C.3     1  UNL1        0.0721
     25 C         145.3038  141.1364  164.0295 C.3     1  UNL1        0.0174
     26 C         144.6051  142.4636  164.0107 C.3     1  UNL1        0.0031
     27 C         143.4532  142.6917  163.0774 C.3     1  UNL1        0.0204
     28 C         143.0000  141.5925  162.1629 C.3     1  UNL1        0.0724
     29 C         142.7545  144.0189  163.0586 C.3     1  UNL1        0.0277
     30 C         141.3621  144.1412  163.6030 C.ar    1  UNL1       -0.0220
     31 C         140.2739  144.7291  162.7542 C.ar    1  UNL1       -0.0020
     32 C         138.8816  144.8515  163.2986 C.ar    1  UNL1        0.0293
     33 C         138.5774  144.3860  164.6917 C.ar    1  UNL1        0.1401
     34 F         137.1850  144.5084  165.2361 F       1  UNL1       -0.2042
     35 C         139.6655  143.7982  165.5405 C.ar    1  UNL1        0.0293
     36 C         141.0579  143.6758  164.9961 C.ar    1  UNL1       -0.0020
@<TRIPOS>BOND
     1    19    20    1
     2    20    21    2
     3    20    13    1
     4    13    14   ar
     5    14    15   ar
     6    15    16   ar
     7    16    17   ar
     8    17     7    1
     9     7     8   am
    10     8     9    2
    11     8    10   am
    12     1    10    1
    13     1     2    1
    14     2     3    1
    15     3     4    1
    16     4     5    1
    17     5     6    1
    18     6    22    1
    19    22    23    1
    20    23    24    1
    21    24    25    1
    22    25    26    1
    23    26    27    1
    24    27    29    1
    25    29    30    1
    26    30    31   ar
    27    31    32   ar
    28    32    33   ar
    29    33    34    1
    30    33    35   ar
    31    35    36   ar
    32    27    28    1
    33    17    18   ar
    34    18    13   ar
    35     6     1    1
    36    28    23    1
    37    36    30   ar
    38     7    11    1
    39    10    12    1
@<TRIPOS>MOLECULE
*****
 36 39 0 0 0
SMALL
GASTEIGER

@<TRIPOS>ATOM
      1 C         144.0046  140.4263  161.9031 C.3     1  UNL1        0.0743
      2 C         144.6334  141.7332  161.5204 C.3     1  UNL1        0.0197
      3 C         144.5353  142.2275  160.1076 C.3     1  UNL1        0.0017
      4 C         143.8083  141.4149  159.0775 C.3     1  UNL1        0.0002
      5 C         143.1794  140.1079  159.4602 C.3     1  UNL1        0.0030
      6 C         143.2776  139.6136  160.8731 C.3     1  UNL1        0.0340
      7 N         143.3336  140.0380  165.7953 N.am    1  UNL1       -0.2683
      8 C         143.2355  140.5323  164.3825 C.2     1  UNL1        0.3044
      9 O         142.2702  141.6270  164.0363 O.2     1  UNL1       -0.2525
     10 N         144.1027  139.9319  163.3159 N.am    1  UNL1       -0.2903
     11 H         143.9672  139.3195  166.0225 H       1  UNL1        0.1564
     12 H         144.7363  139.2135  163.5431 H       1  UNL1        0.1509
     13 C         140.3129  140.5701  168.3136 C.ar    1  UNL1        0.0359
     14 C         140.7320  141.8389  168.9950 C.ar    1  UNL1        0.0029
     15 C         142.0184  142.5074  168.6098 C.ar    1  UNL1        0.0014
     16 C         142.8856  141.9072  167.5433 C.ar    1  UNL1        0.0147
     17 C         142.4664  140.6383  166.8619 C.ar    1  UNL1        0.0517
     18 C         141.1801  139.9698  167.2471 C.ar    1  UNL1        0.0176
     19 C         138.2106  139.1904  167.6603 C.3     1  UNL1        0.0773
     20 C         139.0265  139.9015  168.6988 C.2     1  UNL1        0.1735
     21 O         138.5561  139.9440  170.1225 O.2     1  UNL1       -0.2913
     22 C         142.6488  138.3067  161.2558 C.3     1  UNL1        0.0737
     23 N         141.5458  138.2741  162.2719 N.3     1  UNL1       -0.2726
     24 C         141.5762  137.2632  163.3797 C.3     1  UNL1        0.0721
     25 C         140.4733  137.2307  164.3958 C.3     1  UNL1        0.0174
     26 C         139.3400  138.2092  164.3041 C.3     1  UNL1        0.0031
     27 C         139.3096  139.2201  163.1964 C.3     1  UNL1        0.0204
     28 C         140.4125  139.2526  162.1803 C.3     1  UNL1        0.0724
     29 C         138.1764  140.1985  163.1048 C.3     1  UNL1        0.0277
     30 C         138.2928  141.5442  163.7571 C.ar    1  UNL1       -0.0220
     31 C         139.1389  141.7122  164.9843 C.ar    1  UNL1       -0.0020
     32 C         139.2552  143.0578  165.6367 C.ar    1  UNL1        0.0293
     33 C         138.5255  144.2356  165.0618 C.ar    1  UNL1        0.1401
     34 F         138.6420  145.5813  165.7142 F       1  UNL1       -0.2042
     35 C         137.6795  144.0677  163.8347 C.ar    1  UNL1        0.0293
     36 C         137.5631  142.7219  163.1823 C.ar    1  UNL1       -0.0020
@<TRIPOS>BOND
     1    19    20    1
     2    20    21    2
     3    20    13    1
     4    13    14   ar
     5    14    15   ar
     6    15    16   ar
     7    16    17   ar
     8    17     7    1
     9     7     8   am
    10     8     9    2
    11     8    10   am
    12     1    10    1
    13     1     2    1
    14     2     3    1
    15     3     4    1
    16     4     5    1
    17     5     6    1
    18     6    22    1
    19    22    23    1
    20    23    24    1
    21    24    25    1
    22    25    26    1
    23    26    27    1
    24    27    29    1
    25    29    30    1
    26    30    31   ar
    27    31    32   ar
    28    32    33   ar
    29    33    34    1
    30    33    35   ar
    31    35    36   ar
    32    27    28    1
    33    17    18   ar
    34    18    13   ar
    35     6     1    1
    36    28    23    1
    37    36    30   ar
    38     7    11    1
    39    10    12    1
@<TRIPOS>MOLECULE
*****
 36 39 0 0 0
SMALL
GASTEIGER

@<TRIPOS>ATOM
      1 C         142.1333  144.3326  162.3193 C.3     1  UNL1        0.0743
      2 C         141.1134  145.4187  162.4932 C.3     1  UNL1        0.0197
      3 C         140.2595  145.8384  161.3336 C.3     1  UNL1        0.0017
      4 C         140.4256  145.1719  160.0000 C.3     1  UNL1        0.0002
      5 C         141.4455  144.0859  159.8261 C.3     1  UNL1        0.0030
      6 C         142.2994  143.6662  160.9858 C.3     1  UNL1        0.0340
      7 N         143.2548  142.6581  165.7381 N.am    1  UNL1       -0.2683
      8 C         142.4010  143.0777  164.5785 C.2     1  UNL1        0.3044
      9 O         140.9609  142.6622  164.5183 O.2     1  UNL1       -0.2525
     10 N         142.9872  143.9130  163.4789 N.am    1  UNL1       -0.2903
     11 H         144.2000  142.9308  165.7776 H       1  UNL1        0.1564
     12 H         143.9323  144.1857  163.5184 H       1  UNL1        0.1509
     13 C         141.5847  141.6418  169.1918 C.ar    1  UNL1        0.0359
     14 C         141.4963  140.1526  169.0366 C.ar    1  UNL1        0.0029
     15 C         141.9942  139.4984  167.7819 C.ar    1  UNL1        0.0014
     16 C         142.5803  140.3335  166.6824 C.ar    1  UNL1        0.0147
     17 C         142.6687  141.8228  166.8376 C.ar    1  UNL1        0.0517
     18 C         142.1708  142.4770  168.0923 C.ar    1  UNL1        0.0176
     19 C         139.9816  143.3077  170.3771 C.3     1  UNL1        0.0773
     20 C         141.0868  142.2960  170.4465 C.2     1  UNL1        0.1735
     21 O         141.6943  141.9385  171.7705 O.2     1  UNL1       -0.2913
     22 C         143.3193  142.5801  160.8119 C.3     1  UNL1        0.0737
     23 N         143.2284  141.3276  161.6324 N.3     1  UNL1       -0.2726
     24 C         144.4346  140.8238  162.3680 C.3     1  UNL1        0.0721
     25 C         144.3438  139.5713  163.1884 C.3     1  UNL1        0.0174
     26 C         143.0467  138.8228  163.2731 C.3     1  UNL1        0.0031
     27 C         141.8405  139.3266  162.5375 C.3     1  UNL1        0.0204
     28 C         141.9314  140.5791  161.7172 C.3     1  UNL1        0.0724
     29 C         140.5434  138.5780  162.6223 C.3     1  UNL1        0.0277
     30 C         139.7427  138.6062  163.8904 C.ar    1  UNL1       -0.0220
     31 C         139.3756  137.3226  164.5744 C.ar    1  UNL1       -0.0020
     32 C         138.5749  137.3508  165.8424 C.ar    1  UNL1        0.0293
     33 C         138.1412  138.6625  166.4266 C.ar    1  UNL1        0.1401
     34 F         137.3404  138.6907  167.6947 F       1  UNL1       -0.2042
     35 C         138.5082  139.9461  165.7427 C.ar    1  UNL1        0.0293
     36 C         139.3089  139.9179  164.4745 C.ar    1  UNL1       -0.0020
@<TRIPOS>BOND
     1    19    20    1
     2    20    21    2
     3    20    13    1
     4    13    14   ar
     5    14    15   ar
     6    15    16   ar
     7    16    17   ar
     8    17     7    1
     9     7     8   am
    10     8     9    2
    11     8    10   am
    12     1    10    1
    13     1     2    1
    14     2     3    1
    15     3     4    1
    16     4     5    1
    17     5     6    1
    18     6    22    1
    19    22    23    1
    20    23    24    1
    21    24    25    1
    22    25    26    1
    23    26    27    1
    24    27    29    1
    25    29    30    1
    26    30    31   ar
    27    31    32   ar
    28    32    33   ar
    29    33    34    1
    30    33    35   ar
    31    35    36   ar
    32    27    28    1
    33    17    18   ar
    34    18    13   ar
    35     6     1    1
    36    28    23    1
    37    36    30   ar
    38     7    11    1
    39    10    12    1
@<TRIPOS>MOLECULE
*****
 36 39 0 0 0
SMALL
GASTEIGER

@<TRIPOS>ATOM
      1 C         142.2484  143.9075  161.1738 C.3     1  UNL1        0.0743
      2 C         143.3769  143.2187  160.4653 C.3     1  UNL1        0.0197
      3 C         143.3345  143.0483  158.9757 C.3     1  UNL1        0.0017
      4 C         142.1636  143.5667  158.1944 C.3     1  UNL1        0.0002
      5 C         141.0351  144.2555  158.9029 C.3     1  UNL1        0.0030
      6 C         141.0775  144.4259  160.3927 C.3     1  UNL1        0.0340
      7 N         142.1903  143.0538  165.0491 N.am    1  UNL1       -0.2683
      8 C         142.1480  142.8833  163.5594 C.2     1  UNL1        0.3044
      9 O         141.9628  141.5184  162.9656 O.2     1  UNL1       -0.2525
     10 N         142.2907  144.0779  162.6635 N.am    1  UNL1       -0.2903
     11 H         142.3118  143.9496  165.4388 H       1  UNL1        0.1564
     12 H         142.4122  144.9738  163.0532 H       1  UNL1        0.1509
     13 C         140.7751  140.5963  167.8255 C.ar    1  UNL1        0.0359
     14 C         141.7620  139.4701  167.7369 C.ar    1  UNL1        0.0029
     15 C         142.8916  139.5385  166.7523 C.ar    1  UNL1        0.0014
     16 C         143.0344  140.7330  165.8564 C.ar    1  UNL1        0.0147
     17 C         142.0475  141.8592  165.9450 C.ar    1  UNL1        0.0517
     18 C         140.9179  141.7908  166.9295 C.ar    1  UNL1        0.0176
     19 C         139.5718  141.5155  169.9366 C.3     1  UNL1        0.0773
     20 C         139.6455  140.5279  168.8100 C.2     1  UNL1        0.1735
     21 O         138.5896  139.4721  168.6679 O.2     1  UNL1       -0.2913
     22 C         139.9490  145.1147  161.1012 C.3     1  UNL1        0.0737
     23 N         139.2840  144.4540  162.2723 N.3     1  UNL1       -0.2726
     24 C         139.1272  145.1994  163.5644 C.3     1  UNL1        0.0721
     25 C         138.4623  144.5387  164.7354 C.3     1  UNL1        0.0174
     26 C         137.9542  143.1326  164.6142 C.3     1  UNL1        0.0031
     27 C         138.1111  142.3872  163.3221 C.3     1  UNL1        0.0204
     28 C         138.7760  143.0479  162.1511 C.3     1  UNL1        0.0724
     29 C         137.6030  140.9810  163.2009 C.3     1  UNL1        0.0277
     30 C         138.4840  139.8295  163.5853 C.ar    1  UNL1       -0.0220
     31 C         139.3827  139.1989  162.5631 C.ar    1  UNL1       -0.0020
     32 C         140.2637  138.0473  162.9475 C.ar    1  UNL1        0.0293
     33 C         140.2461  137.5264  164.3540 C.ar    1  UNL1        0.1401
     34 F         141.1272  136.3748  164.7384 F       1  UNL1       -0.2042
     35 C         139.3475  138.1570  165.3762 C.ar    1  UNL1        0.0293
     36 C         138.4664  139.3086  164.9918 C.ar    1  UNL1       -0.0020
@<TRIPOS>BOND
     1    19    20    1
     2    20    21    2
     3    20    13    1
     4    13    14   ar
     5    14    15   ar
     6    15    16   ar
     7    16    17   ar
     8    17     7    1
     9     7     8   am
    10     8     9    2
    11     8    10   am
    12     1    10    1
    13     1     2    1
    14     2     3    1
    15     3     4    1
    16     4     5    1
    17     5     6    1
    18     6    22    1
    19    22    23    1
    20    23    24    1
    21    24    25    1
    22    25    26    1
    23    26    27    1
    24    27    29    1
    25    29    30    1
    26    30    31   ar
    27    31    32   ar
    28    32    33   ar
    29    33    34    1
    30    33    35   ar
    31    35    36   ar
    32    27    28    1
    33    17    18   ar
    34    18    13   ar
    35     6     1    1
    36    28    23    1
    37    36    30   ar
    38     7    11    1
    39    10    12    1
@<TRIPOS>MOLECULE
*****
 36 39 0 0 0
SMALL
GASTEIGER

@<TRIPOS>ATOM
      1 C         140.7506  138.9707  160.6499 C.3     1  UNL1        0.0743
      2 C         139.3682  139.1266  160.0889 C.3     1  UNL1        0.0197
      3 C         139.1637  139.8403  158.7856 C.3     1  UNL1        0.0017
      4 C         140.3417  140.3983  158.0432 C.3     1  UNL1        0.0002
      5 C         141.7241  140.2424  158.6042 C.3     1  UNL1        0.0030
      6 C         141.9285  139.5286  159.9075 C.3     1  UNL1        0.0340
      7 N         140.8847  138.2507  164.5503 N.am    1  UNL1       -0.2683
      8 C         140.6802  138.9645  163.2470 C.2     1  UNL1        0.3044
      9 O         140.2010  140.3859  163.2374 O.2     1  UNL1       -0.2525
     10 N         140.9550  138.2569  161.9532 N.am    1  UNL1       -0.2903
     11 H         141.1992  137.3178  164.5566 H       1  UNL1        0.1564
     12 H         141.2695  137.3240  161.9595 H       1  UNL1        0.1509
     13 C         141.4692  140.2407  167.9339 C.ar    1  UNL1        0.0359
     14 C         140.0605  140.3734  168.4317 C.ar    1  UNL1        0.0029
     15 C         138.9265  139.7985  167.6357 C.ar    1  UNL1        0.0014
     16 C         139.2012  139.0910  166.3420 C.ar    1  UNL1        0.0147
     17 C         140.6099  138.9583  165.8442 C.ar    1  UNL1        0.0517
     18 C         141.7439  139.5332  166.6401 C.ar    1  UNL1        0.0176
     19 C         143.1089  142.1948  168.4266 C.3     1  UNL1        0.0773
     20 C         142.6033  140.8156  168.7298 C.2     1  UNL1        0.1735
     21 O         143.2316  140.0112  169.8290 O.2     1  UNL1       -0.2913
     22 C         143.3109  139.3727  160.4685 C.3     1  UNL1        0.0737
     23 N         143.6361  139.9231  161.8255 N.3     1  UNL1       -0.2726
     24 C         144.3165  139.0562  162.8431 C.3     1  UNL1        0.0721
     25 C         144.6417  139.6066  164.2000 C.3     1  UNL1        0.0174
     26 C         144.2864  141.0239  164.5394 C.3     1  UNL1        0.0031
     27 C         143.6060  141.8907  163.5218 C.3     1  UNL1        0.0204
     28 C         143.2808  141.3403  162.1649 C.3     1  UNL1        0.0724
     29 C         143.2507  143.3080  163.8612 C.3     1  UNL1        0.0277
     30 C         141.8431  143.6573  164.2440 C.ar    1  UNL1       -0.0220
     31 C         141.1834  142.9577  165.3953 C.ar    1  UNL1       -0.0020
     32 C         139.7757  143.3070  165.7781 C.ar    1  UNL1        0.0293
     33 C         139.0278  144.3558  165.0097 C.ar    1  UNL1        0.1401
     34 F         137.6201  144.7050  165.3925 F       1  UNL1       -0.2042
     35 C         139.6874  145.0553  163.8584 C.ar    1  UNL1        0.0293
     36 C         141.0951  144.7060  163.4755 C.ar    1  UNL1       -0.0020
@<TRIPOS>BOND
     1    19    20    1
     2    20    21    2
     3    20    13    1
     4    13    14   ar
     5    14    15   ar
     6    15    16   ar
     7    16    17   ar
     8    17     7    1
     9     7     8   am
    10     8     9    2
    11     8    10   am
    12     1    10    1
    13     1     2    1
    14     2     3    1
    15     3     4    1
    16     4     5    1
    17     5     6    1
    18     6    22    1
    19    22    23    1
    20    23    24    1
    21    24    25    1
    22    25    26    1
    23    26    27    1
    24    27    29    1
    25    29    30    1
    26    30    31   ar
    27    31    32   ar
    28    32    33   ar
    29    33    34    1
    30    33    35   ar
    31    35    36   ar
    32    27    28    1
    33    17    18   ar
    34    18    13   ar
    35     6     1    1
    36    28    23    1
    37    36    30   ar
    38     7    11    1
    39    10    12    1
