@<TRIPOS>MOLECULE
*****
 28 30 0 0 0
SMALL
GASTEIGER

@<TRIPOS>ATOM
      1 C         140.6859  137.9779  157.7286 C.2     1  UNL1        0.2414
      2 O         139.3439  137.9710  157.0585 O.2     1  UNL1       -0.2734
      3 N         140.8171  138.4697  159.1396 N.am    1  UNL1       -0.2749
      4 C         142.1591  138.4766  159.8097 C.3     1  UNL1        0.1150
      5 C         142.2902  138.9685  161.2208 C.3     1  UNL1        0.1165
      6 N         141.0795  139.4535  161.9616 N.am    1  UNL1       -0.2605
      7 C         141.2107  139.9453  163.3725 C.2     1  UNL1        0.3078
      8 O         139.9999  140.4304  164.1134 O.2     1  UNL1       -0.2522
      9 N         142.5526  139.9522  164.0426 N.am    1  UNL1       -0.2681
     10 C         139.7375  139.4466  161.2914 C.3     1  UNL1        0.1165
     11 C         139.6063  138.9547  159.8805 C.3     1  UNL1        0.1150
     12 H         143.3473  139.6339  163.5564 H       1  UNL1        0.1564
     13 C         145.0725  138.9805  155.1301 C.3     1  UNL1        0.0897
     14 N         144.0900  137.9942  155.6885 N.3     1  UNL1       -0.2687
     15 C         144.3182  136.5229  155.5061 C.3     1  UNL1        0.0895
     16 C         143.3356  135.5366  156.0645 C.3     1  UNL1        0.0865
     17 N         142.1249  136.0216  156.8053 N.3     1  UNL1       -0.2890
     18 C         141.8967  137.4928  156.9878 C.3     1  UNL1        0.1479
     19 C         142.8792  138.4791  156.4294 C.3     1  UNL1        0.0975
     20 H         142.1672  135.6122  157.7386 H       1  UNL1        0.1237
     21 C         142.6838  140.4441  165.4537 C.ar    1  UNL1        0.0525
     22 C         142.9714  141.8921  165.7194 C.ar    1  UNL1        0.0156
     23 C         143.1026  142.3840  167.1304 C.ar    1  UNL1        0.0135
     24 C         142.9461  141.4280  168.2755 C.ar    1  UNL1        0.0683
     25 CL        143.0773  141.9199  169.6865 Cl      1  UNL1       -0.0814
     26 C         142.6585  139.9800  168.0098 C.ar    1  UNL1        0.0694
     27 CL        142.5020  139.0239  169.1550 Cl      1  UNL1       -0.0813
     28 C         142.5273  139.4881  166.5988 C.ar    1  UNL1        0.0270
@<TRIPOS>BOND
     1    13    14    1
     2    14    15    1
     3    15    16    1
     4    16    17    1
     5    17    18    1
     6    18     1    1
     7     1     2    2
     8     1     3   am
     9     3     4    1
    10     4     5    1
    11     5     6    1
    12     6     7   am
    13     7     8    2
    14     7     9   am
    15     9    21    1
    16    21    22   ar
    17    22    23   ar
    18    23    24   ar
    19    24    25    1
    20    24    26   ar
    21    26    27    1
    22    26    28   ar
    23     6    10    1
    24    10    11    1
    25    18    19    1
    26    19    14    1
    27    11     3    1
    28    28    21   ar
    29    17    20    1
    30     9    12    1
@<TRIPOS>MOLECULE
*****
 28 30 0 0 0
SMALL
GASTEIGER

@<TRIPOS>ATOM
      1 C         143.8182  143.0553  158.7225 C.2     1  UNL1        0.2414
      2 O         145.1876  142.7135  158.2148 O.2     1  UNL1       -0.2734
      3 N         143.4275  142.6968  160.1257 N.am    1  UNL1       -0.2749
      4 C         142.0580  143.0385  160.6334 C.3     1  UNL1        0.1150
      5 C         141.6673  142.6801  162.0366 C.3     1  UNL1        0.1165
      6 N         142.6461  141.9799  162.9320 N.am    1  UNL1       -0.2605
      7 C         142.2554  141.6215  164.3351 C.2     1  UNL1        0.3078
      8 O         143.2342  140.9213  165.2306 O.2     1  UNL1       -0.2522
      9 N         140.8859  141.9632  164.8429 N.am    1  UNL1       -0.2681
     10 C         144.0156  141.6382  162.4243 C.3     1  UNL1        0.1165
     11 C         144.4063  141.9966  161.0211 C.3     1  UNL1        0.1150
     12 H         140.2435  142.4227  164.2552 H       1  UNL1        0.1564
     13 C         140.0767  142.8608  155.1220 C.3     1  UNL1        0.0897
     14 N         140.9687  143.6582  156.0268 N.3     1  UNL1       -0.2687
     15 C         140.8819  145.1556  156.0361 C.3     1  UNL1        0.0895
     16 C         141.7738  145.9529  156.9410 C.3     1  UNL1        0.0865
     17 N         142.7526  145.2528  157.8364 N.3     1  UNL1       -0.2890
     18 C         142.8394  143.7554  157.8270 C.3     1  UNL1        0.1479
     19 C         141.9474  142.9581  156.9222 C.3     1  UNL1        0.0975
     20 H         142.5268  145.5287  158.7921 H       1  UNL1        0.1237
     21 C         140.4952  141.6047  166.2461 C.ar    1  UNL1        0.0525
     22 C         139.8462  140.2824  166.5293 C.ar    1  UNL1        0.0156
     23 C         139.4555  139.9239  167.9324 C.ar    1  UNL1        0.0135
     24 C         139.7139  140.8877  169.0523 C.ar    1  UNL1        0.0683
     25 CL        139.3232  140.5293  170.4556 Cl      1  UNL1       -0.0814
     26 C         140.3629  142.2101  168.7691 C.ar    1  UNL1        0.0694
     27 CL        140.6213  143.1739  169.8891 Cl      1  UNL1       -0.0813
     28 C         140.7536  142.5686  167.3660 C.ar    1  UNL1        0.0270
@<TRIPOS>BOND
     1    13    14    1
     2    14    15    1
     3    15    16    1
     4    16    17    1
     5    17    18    1
     6    18     1    1
     7     1     2    2
     8     1     3   am
     9     3     4    1
    10     4     5    1
    11     5     6    1
    12     6     7   am
    13     7     8    2
    14     7     9   am
    15     9    21    1
    16    21    22   ar
    17    22    23   ar
    18    23    24   ar
    19    24    25    1
    20    24    26   ar
    21    26    27    1
    22    26    28   ar
    23     6    10    1
    24    10    11    1
    25    18    19    1
    26    19    14    1
    27    11     3    1
    28    28    21   ar
    29    17    20    1
    30     9    12    1
@<TRIPOS>MOLECULE
*****
 28 30 0 0 0
SMALL
GASTEIGER

@<TRIPOS>ATOM
      1 C         142.9762  143.6752  158.7241 C.2     1  UNL1        0.2414
      2 O         142.5809  144.9862  158.1116 O.2     1  UNL1       -0.2734
      3 N         142.5998  143.3664  160.1428 N.am    1  UNL1       -0.2749
      4 C         142.9952  142.0554  160.7552 C.3     1  UNL1        0.1150
      5 C         142.6187  141.7465  162.1741 C.3     1  UNL1        0.1165
      6 N         141.8470  142.7486  162.9804 N.am    1  UNL1       -0.2605
      7 C         141.4706  142.4398  164.3991 C.2     1  UNL1        0.3078
      8 O         140.6988  143.4419  165.2055 O.2     1  UNL1       -0.2522
      9 N         141.8660  141.1288  165.0115 N.am    1  UNL1       -0.2681
     10 C         141.4516  144.0596  162.3679 C.3     1  UNL1        0.1165
     11 C         141.8280  144.3685  160.9492 C.3     1  UNL1        0.1150
     12 H         142.3725  140.4711  164.4823 H       1  UNL1        0.1564
     13 C         143.1440  139.2314  156.0362 C.3     1  UNL1        0.0897
     14 N         143.8318  140.4512  156.5737 N.3     1  UNL1       -0.2687
     15 C         145.2914  140.6690  156.3049 C.3     1  UNL1        0.0895
     16 C         145.9792  141.8888  156.8425 C.3     1  UNL1        0.0865
     17 N         145.2075  142.8908  157.6489 N.3     1  UNL1       -0.2890
     18 C         143.7480  142.6731  157.9177 C.3     1  UNL1        0.1479
     19 C         143.0601  141.4533  157.3801 C.3     1  UNL1        0.0975
     20 H         145.2874  143.7841  157.1630 H       1  UNL1        0.1237
     21 C         141.4895  140.8199  166.4304 C.ar    1  UNL1        0.0525
     22 C         140.0961  140.3699  166.7556 C.ar    1  UNL1        0.0156
     23 C         139.7196  140.0611  168.1743 C.ar    1  UNL1        0.0135
     24 C         140.7366  140.2023  169.2678 C.ar    1  UNL1        0.0683
     25 CL        140.3602  139.8934  170.6867 Cl      1  UNL1       -0.0814
     26 C         142.1301  140.6523  168.9426 C.ar    1  UNL1        0.0694
     27 CL        143.1471  140.7935  170.0362 Cl      1  UNL1       -0.0813
     28 C         142.5065  140.9612  167.5239 C.ar    1  UNL1        0.0270
@<TRIPOS>BOND
     1    13    14    1
     2    14    15    1
     3    15    16    1
     4    16    17    1
     5    17    18    1
     6    18     1    1
     7     1     2    2
     8     1     3   am
     9     3     4    1
    10     4     5    1
    11     5     6    1
    12     6     7   am
    13     7     8    2
    14     7     9   am
    15     9    21    1
    16    21    22   ar
    17    22    23   ar
    18    23    24   ar
    19    24    25    1
    20    24    26   ar
    21    26    27    1
    22    26    28   ar
    23     6    10    1
    24    10    11    1
    25    18    19    1
    26    19    14    1
    27    11     3    1
    28    28    21   ar
    29    17    20    1
    30     9    12    1
@<TRIPOS>MOLECULE
*****
 28 30 0 0 0
SMALL
GASTEIGER

@<TRIPOS>ATOM
      1 C         139.1863  139.9738  167.7169 C.2     1  UNL1        0.2414
      2 O         138.1394  138.9199  167.9251 O.2     1  UNL1       -0.2734
      3 N         139.4294  140.5288  166.3448 N.am    1  UNL1       -0.2749
      4 C         140.4762  141.5828  166.1367 C.3     1  UNL1        0.1150
      5 C         140.7193  142.1378  164.7644 C.3     1  UNL1        0.1165
      6 N         139.9156  141.6388  163.6004 N.am    1  UNL1       -0.2605
      7 C         140.1587  142.1938  162.2283 C.2     1  UNL1        0.3078
      8 O         139.3549  141.6949  161.0641 O.2     1  UNL1       -0.2522
      9 N         141.2056  143.2477  162.0201 N.am    1  UNL1       -0.2681
     10 C         138.8687  140.5849  163.8085 C.3     1  UNL1        0.1165
     11 C         138.6256  140.0299  165.1807 C.3     1  UNL1        0.1150
     12 H         141.7331  143.5752  162.7841 H       1  UNL1        0.1564
     13 C         143.3105  139.5506  170.8493 C.3     1  UNL1        0.0897
     14 N         142.0522  140.2611  170.4472 N.3     1  UNL1       -0.2687
     15 C         141.5975  141.4705  171.2091 C.3     1  UNL1        0.0895
     16 C         140.3392  142.1811  170.8071 C.3     1  UNL1        0.0865
     17 N         139.5354  141.6822  169.6430 N.3     1  UNL1       -0.2890
     18 C         139.9900  140.4728  168.8811 C.3     1  UNL1        0.1479
     19 C         141.2484  139.7623  169.2832 C.3     1  UNL1        0.0975
     20 H         139.4807  142.4491  168.9727 H       1  UNL1        0.1237
     21 C         141.4486  143.8027  160.6479 C.ar    1  UNL1        0.0525
     22 C         140.6973  145.0159  160.1856 C.ar    1  UNL1        0.0156
     23 C         140.9403  145.5709  158.8134 C.ar    1  UNL1        0.0135
     24 C         141.9347  144.9127  157.9036 C.ar    1  UNL1        0.0683
     25 CL        142.1778  145.4677  156.5313 Cl      1  UNL1       -0.0814
     26 C         142.6861  143.6996  158.3659 C.ar    1  UNL1        0.0694
     27 CL        143.6806  143.0414  157.4559 Cl      1  UNL1       -0.0813
     28 C         142.4431  143.1446  159.7380 C.ar    1  UNL1        0.0270
@<TRIPOS>BOND
     1    13    14    1
     2    14    15    1
     3    15    16    1
     4    16    17    1
     5    17    18    1
     6    18     1    1
     7     1     2    2
     8     1     3   am
     9     3     4    1
    10     4     5    1
    11     5     6    1
    12     6     7   am
    13     7     8    2
    14     7     9   am
    15     9    21    1
    16    21    22   ar
    17    22    23   ar
    18    23    24   ar
    19    24    25    1
    20    24    26   ar
    21    26    27    1
    22    26    28   ar
    23     6    10    1
    24    10    11    1
    25    18    19    1
    26    19    14    1
    27    11     3    1
    28    28    21   ar
    29    17    20    1
    30     9    12    1
@<TRIPOS>MOLECULE
*****
 28 30 0 0 0
SMALL
GASTEIGER

@<TRIPOS>ATOM
      1 C         143.5671  137.7874  156.2118 C.2     1  UNL1        0.2414
      2 O         144.7994  138.1705  155.4473 O.2     1  UNL1       -0.2734
      3 N         143.0182  138.7090  157.2603 N.am    1  UNL1       -0.2749
      4 C         141.7859  138.3259  158.0249 C.3     1  UNL1        0.1150
      5 C         141.2370  139.2475  159.0734 C.3     1  UNL1        0.1165
      6 N         141.9204  140.5522  159.3574 N.am    1  UNL1       -0.2605
      7 C         141.3715  141.4738  160.4058 C.2     1  UNL1        0.3078
      8 O         142.0550  142.7785  160.6898 O.2     1  UNL1       -0.2522
      9 N         140.1392  141.0906  161.1704 N.am    1  UNL1       -0.2681
     10 C         143.1528  140.9353  158.5928 C.3     1  UNL1        0.1165
     11 C         143.7017  140.0138  157.5443 C.3     1  UNL1        0.1150
     12 H         139.6906  140.2343  160.9841 H       1  UNL1        0.1564
     13 C         143.1070  132.6768  157.0305 C.3     1  UNL1        0.0897
     14 N         142.6536  133.9274  156.3372 N.3     1  UNL1       -0.2687
     15 C         141.5169  133.8732  155.3601 C.3     1  UNL1        0.0895
     16 C         141.0636  135.1237  154.6668 C.3     1  UNL1        0.0865
     17 N         141.7470  136.4285  154.9507 N.3     1  UNL1       -0.2890
     18 C         142.8837  136.4826  155.9279 C.3     1  UNL1        0.1479
     19 C         143.3370  135.2321  156.6211 C.3     1  UNL1        0.0975
     20 H         141.0306  137.0669  155.2966 H       1  UNL1        0.1237
     21 C         139.5903  142.0123  162.2190 C.ar    1  UNL1        0.0525
     22 C         138.4228  142.8989  161.9014 C.ar    1  UNL1        0.0156
     23 C         137.8739  143.8205  162.9499 C.ar    1  UNL1        0.0135
     24 C         138.4925  143.8555  164.3159 C.ar    1  UNL1        0.0683
     25 CL        137.9436  144.7772  165.3644 Cl      1  UNL1       -0.0814
     26 C         139.6601  142.9690  164.6334 C.ar    1  UNL1        0.0694
     27 CL        140.2787  143.0040  165.9995 Cl      1  UNL1       -0.0813
     28 C         140.2089  142.0473  163.5850 C.ar    1  UNL1        0.0270
@<TRIPOS>BOND
     1    13    14    1
     2    14    15    1
     3    15    16    1
     4    16    17    1
     5    17    18    1
     6    18     1    1
     7     1     2    2
     8     1     3   am
     9     3     4    1
    10     4     5    1
    11     5     6    1
    12     6     7   am
    13     7     8    2
    14     7     9   am
    15     9    21    1
    16    21    22   ar
    17    22    23   ar
    18    23    24   ar
    19    24    25    1
    20    24    26   ar
    21    26    27    1
    22    26    28   ar
    23     6    10    1
    24    10    11    1
    25    18    19    1
    26    19    14    1
    27    11     3    1
    28    28    21   ar
    29    17    20    1
    30     9    12    1
@<TRIPOS>MOLECULE
*****
 28 30 0 0 0
SMALL
GASTEIGER

@<TRIPOS>ATOM
      1 C         143.1643  143.4513  162.5537 C.2     1  UNL1        0.2414
      2 O         144.1471  144.5811  162.4669 O.2     1  UNL1       -0.2734
      3 N         143.1195  142.4115  161.4735 N.am    1  UNL1       -0.2749
      4 C         142.1367  141.2817  161.5602 C.3     1  UNL1        0.1150
      5 C         142.0920  140.2419  160.4799 C.3     1  UNL1        0.1165
      6 N         143.0301  140.3320  159.3130 N.am    1  UNL1       -0.2605
      7 C         142.9854  139.2923  158.2328 C.2     1  UNL1        0.3078
      8 O         143.9235  139.3823  157.0657 O.2     1  UNL1       -0.2522
      9 N         142.0026  138.1624  158.3195 N.am    1  UNL1       -0.2681
     10 C         144.0129  141.4619  159.2262 C.3     1  UNL1        0.1165
     11 C         144.0577  142.5016  160.3064 C.3     1  UNL1        0.1150
     12 H         141.3868  138.1033  159.0854 H       1  UNL1        0.1564
     13 C         138.6824  144.7572  164.8358 C.3     1  UNL1        0.0897
     14 N         139.9852  144.0142  164.8617 N.3     1  UNL1       -0.2687
     15 C         140.3499  143.1812  166.0546 C.3     1  UNL1        0.0895
     16 C         141.6527  142.4382  166.0805 C.3     1  UNL1        0.0865
     17 N         142.5908  142.5282  164.9136 N.3     1  UNL1       -0.2890
     18 C         142.2261  143.3612  163.7207 C.3     1  UNL1        0.1479
     19 C         140.9233  144.1042  163.6948 C.3     1  UNL1        0.0975
     20 H         142.7327  141.5763  164.5757 H       1  UNL1        0.1237
     21 C         141.9579  137.1226  157.2392 C.ar    1  UNL1        0.0525
     22 C         140.8961  137.1852  156.1815 C.ar    1  UNL1        0.0156
     23 C         140.8513  136.1455  155.1013 C.ar    1  UNL1        0.0135
     24 C         141.8684  135.0433  155.0787 C.ar    1  UNL1        0.0683
     25 CL        141.8237  134.0035  153.9984 Cl      1  UNL1       -0.0814
     26 C         142.9302  134.9807  156.1364 C.ar    1  UNL1        0.0694
     27 CL        143.9473  133.8783  156.1138 Cl      1  UNL1       -0.0813
     28 C         142.9749  136.0204  157.2167 C.ar    1  UNL1        0.0270
@<TRIPOS>BOND
     1    13    14    1
     2    14    15    1
     3    15    16    1
     4    16    17    1
     5    17    18    1
     6    18     1    1
     7     1     2    2
     8     1     3   am
     9     3     4    1
    10     4     5    1
    11     5     6    1
    12     6     7   am
    13     7     8    2
    14     7     9   am
    15     9    21    1
    16    21    22   ar
    17    22    23   ar
    18    23    24   ar
    19    24    25    1
    20    24    26   ar
    21    26    27    1
    22    26    28   ar
    23     6    10    1
    24    10    11    1
    25    18    19    1
    26    19    14    1
    27    11     3    1
    28    28    21   ar
    29    17    20    1
    30     9    12    1
@<TRIPOS>MOLECULE
*****
 28 30 0 0 0
SMALL
GASTEIGER

@<TRIPOS>ATOM
      1 C         139.2508  139.6561  167.7341 C.2     1  UNL1        0.2414
      2 O         138.0092  139.0701  168.3384 O.2     1  UNL1       -0.2734
      3 N         139.5306  139.4750  166.2716 N.am    1  UNL1       -0.2749
      4 C         140.7721  140.0610  165.6673 C.3     1  UNL1        0.1150
      5 C         141.0519  139.8798  164.2048 C.3     1  UNL1        0.1165
      6 N         140.0901  139.1126  163.3466 N.am    1  UNL1       -0.2605
      7 C         140.3699  138.9315  161.8841 C.2     1  UNL1        0.3078
      8 O         139.4082  138.1643  161.0259 O.2     1  UNL1       -0.2522
      9 N         141.6115  139.5175  161.2798 N.am    1  UNL1       -0.2681
     10 C         138.8486  138.5266  163.9509 C.3     1  UNL1        0.1165
     11 C         138.5688  138.7077  165.4134 C.3     1  UNL1        0.1150
     12 H         142.2427  140.0210  161.8431 H       1  UNL1        0.1564
     13 C         140.7231  144.1111  169.9668 C.3     1  UNL1        0.0897
     14 N         140.9486  142.6508  169.7086 N.3     1  UNL1       -0.2687
     15 C         142.1358  141.9577  170.3087 C.3     1  UNL1        0.0895
     16 C         142.3614  140.4974  170.0506 C.3     1  UNL1        0.0865
     17 N         141.3997  139.7302  169.1924 N.3     1  UNL1       -0.2890
     18 C         140.2125  140.4233  168.5923 C.3     1  UNL1        0.1479
     19 C         139.9870  141.8836  168.8504 C.3     1  UNL1        0.0975
     20 H         141.0372  138.9681  169.7652 H       1  UNL1        0.1237
     21 C         141.8913  139.3363  159.8173 C.ar    1  UNL1        0.0525
     22 C         141.7683  140.5012  158.8802 C.ar    1  UNL1        0.0156
     23 C         142.0480  140.3200  157.4178 C.ar    1  UNL1        0.0135
     24 C         142.4508  138.9741  156.8923 C.ar    1  UNL1        0.0683
     25 CL        142.7305  138.7929  155.4298 Cl      1  UNL1       -0.0814
     26 C         142.5737  137.8092  157.8294 C.ar    1  UNL1        0.0694
     27 CL        142.9765  136.4632  157.3038 Cl      1  UNL1       -0.0813
     28 C         142.2940  137.9904  159.2918 C.ar    1  UNL1        0.0270
@<TRIPOS>BOND
     1    13    14    1
     2    14    15    1
     3    15    16    1
     4    16    17    1
     5    17    18    1
     6    18     1    1
     7     1     2    2
     8     1     3   am
     9     3     4    1
    10     4     5    1
    11     5     6    1
    12     6     7   am
    13     7     8    2
    14     7     9   am
    15     9    21    1
    16    21    22   ar
    17    22    23   ar
    18    23    24   ar
    19    24    25    1
    20    24    26   ar
    21    26    27    1
    22    26    28   ar
    23     6    10    1
    24    10    11    1
    25    18    19    1
    26    19    14    1
    27    11     3    1
    28    28    21   ar
    29    17    20    1
    30     9    12    1
@<TRIPOS>MOLECULE
*****
 28 30 0 0 0
SMALL
GASTEIGER

@<TRIPOS>ATOM
      1 C         139.5272  143.6062  164.2278 C.2     1  UNL1        0.2414
      2 O         138.5344  144.7264  164.3246 O.2     1  UNL1       -0.2734
      3 N         140.4299  143.5052  163.0341 N.am    1  UNL1       -0.2749
      4 C         141.4228  142.3850  162.9373 C.3     1  UNL1        0.1150
      5 C         142.3255  142.2841  161.7435 C.3     1  UNL1        0.1165
      6 N         142.2353  143.3033  160.6467 N.am    1  UNL1       -0.2605
      7 C         143.1380  143.2022  159.4530 C.2     1  UNL1        0.3078
      8 O         143.0479  144.2215  158.3561 O.2     1  UNL1       -0.2522
      9 N         144.1309  142.0821  159.3562 N.am    1  UNL1       -0.2681
     10 C         141.2425  144.4234  160.7435 C.3     1  UNL1        0.1165
     11 C         140.3398  144.5245  161.9372 C.3     1  UNL1        0.1150
     12 H         144.1901  141.4131  160.0761 H       1  UNL1        0.1564
     13 C         138.2010  138.9834  166.1952 C.3     1  UNL1        0.0897
     14 N         138.9543  140.2756  166.3083 N.3     1  UNL1       -0.2687
     15 C         139.7976  140.5486  167.5183 C.3     1  UNL1        0.0895
     16 C         140.5509  141.8409  167.6315 C.3     1  UNL1        0.0865
     17 N         140.4608  142.8600  166.5347 N.3     1  UNL1       -0.2890
     18 C         139.6174  142.5870  165.3247 C.3     1  UNL1        0.1479
     19 C         138.8642  141.2948  165.2115 C.3     1  UNL1        0.0975
     20 H         141.4116  143.0186  166.2012 H       1  UNL1        0.1237
     21 C         145.0336  141.9811  158.1624 C.ar    1  UNL1        0.0525
     22 C         146.2763  142.8180  158.0889 C.ar    1  UNL1        0.0156
     23 C         147.1790  142.7170  156.8953 C.ar    1  UNL1        0.0135
     24 C         146.8390  141.7792  155.7751 C.ar    1  UNL1        0.0683
     25 CL        147.7418  141.6782  154.5813 Cl      1  UNL1       -0.0814
     26 C         145.5964  140.9423  155.8485 C.ar    1  UNL1        0.0694
     27 CL        145.2564  140.0045  154.7282 Cl      1  UNL1       -0.0813
     28 C         144.6937  141.0433  157.0422 C.ar    1  UNL1        0.0270
@<TRIPOS>BOND
     1    13    14    1
     2    14    15    1
     3    15    16    1
     4    16    17    1
     5    17    18    1
     6    18     1    1
     7     1     2    2
     8     1     3   am
     9     3     4    1
    10     4     5    1
    11     5     6    1
    12     6     7   am
    13     7     8    2
    14     7     9   am
    15     9    21    1
    16    21    22   ar
    17    22    23   ar
    18    23    24   ar
    19    24    25    1
    20    24    26   ar
    21    26    27    1
    22    26    28   ar
    23     6    10    1
    24    10    11    1
    25    18    19    1
    26    19    14    1
    27    11     3    1
    28    28    21   ar
    29    17    20    1
    30     9    12    1
@<TRIPOS>MOLECULE
*****
 28 30 0 0 0
SMALL
GASTEIGER

@<TRIPOS>ATOM
      1 C         142.5238  142.8869  161.5040 C.2     1  UNL1        0.2414
      2 O         143.4449  144.0680  161.4232 O.2     1  UNL1       -0.2734
      3 N         142.6486  141.7691  160.5117 N.am    1  UNL1       -0.2749
      4 C         141.7274  140.5880  160.5925 C.3     1  UNL1        0.1150
      5 C         141.8524  139.4702  159.6000 C.3     1  UNL1        0.1165
      6 N         142.8984  139.5334  158.5269 N.am    1  UNL1       -0.2605
      7 C         143.0233  138.4156  157.5345 C.2     1  UNL1        0.3078
      8 O         144.0693  138.4788  156.4613 O.2     1  UNL1       -0.2522
      9 N         142.1021  137.2345  157.6153 N.am    1  UNL1       -0.2681
     10 C         143.8196  140.7145  158.4461 C.3     1  UNL1        0.1165
     11 C         143.6947  141.8323  159.4384 C.3     1  UNL1        0.1150
     12 H         141.4155  137.1930  158.3197 H       1  UNL1        0.1564
     13 C         137.7565  144.0468  163.2152 C.3     1  UNL1        0.0897
     14 N         139.0941  143.4037  163.4328 N.3     1  UNL1       -0.2687
     15 C         139.3856  142.6974  164.7236 C.3     1  UNL1        0.0895
     16 C         140.7231  142.0543  164.9412 C.3     1  UNL1        0.0865
     17 N         141.7692  142.1175  163.8680 N.3     1  UNL1       -0.2890
     18 C         141.4777  142.8238  162.5773 C.3     1  UNL1        0.1479
     19 C         140.1401  143.4669  162.3596 C.3     1  UNL1        0.0975
     20 H         142.0052  141.1542  163.6298 H       1  UNL1        0.1237
     21 C         142.2270  136.1166  156.6229 C.ar    1  UNL1        0.0525
     22 C         141.3615  136.1011  155.3979 C.ar    1  UNL1        0.0156
     23 C         141.4864  134.9833  154.4055 C.ar    1  UNL1        0.0135
     24 C         142.4767  133.8811  154.6381 C.ar    1  UNL1        0.0683
     25 CL        142.6016  132.7632  153.6457 Cl      1  UNL1       -0.0814
     26 C         143.3422  133.8966  155.8631 C.ar    1  UNL1        0.0694
     27 CL        144.3326  132.7942  156.0957 Cl      1  UNL1       -0.0813
     28 C         143.2173  135.0144  156.8555 C.ar    1  UNL1        0.0270
@<TRIPOS>BOND
     1    13    14    1
     2    14    15    1
     3    15    16    1
     4    16    17    1
     5    17    18    1
     6    18     1    1
     7     1     2    2
     8     1     3   am
     9     3     4    1
    10     4     5    1
    11     5     6    1
    12     6     7   am
    13     7     8    2
    14     7     9   am
    15     9    21    1
    16    21    22   ar
    17    22    23   ar
    18    23    24   ar
    19    24    25    1
    20    24    26   ar
    21    26    27    1
    22    26    28   ar
    23     6    10    1
    24    10    11    1
    25    18    19    1
    26    19    14    1
    27    11     3    1
    28    28    21   ar
    29    17    20    1
    30     9    12    1
