@<TRIPOS>MOLECULE
*****
 31 35 0 0 0
SMALL
GASTEIGER

@<TRIPOS>ATOM
      1 C         141.2043  137.6763  162.1623 C.ar    1  UNL1        0.1388
      2 C         139.7716  138.0699  161.9567 C.ar    1  UNL1        0.0400
      3 C         138.9039  138.3874  163.1384 C.ar    1  UNL1        0.0407
      4 C         139.4691  138.3112  164.5258 C.ar    1  UNL1        0.1479
      5 C         140.9019  137.9176  164.7314 C.ar    1  UNL1        0.0407
      6 C         141.7694  137.6001  163.5497 C.ar    1  UNL1        0.0400
      7 O         142.0719  137.3588  160.9806 O.3     1  UNL1       -0.4740
      8 C         143.5454  137.6337  161.0365 C.3     1  UNL1        0.2226
      9 C         144.0558  139.0302  160.8383 C.3     1  UNL1        0.1200
     10 C         141.3593  142.5448  161.6295 C.3     1  UNL1        0.0815
     11 C         141.3614  141.8899  160.2801 C.3     1  UNL1        0.0373
     12 C         142.2602  140.7184  160.0163 C.3     1  UNL1        0.0739
     13 N         143.1569  140.2018  161.1020 N.3     1  UNL1       -0.2695
     14 C         143.1549  140.8567  162.4515 C.3     1  UNL1        0.0739
     15 C         142.2561  142.0282  162.7153 C.3     1  UNL1        0.0373
     16 O         141.4252  145.4048  160.0592 O.2     1  UNL1       -0.2262
     17 C         140.4908  145.0310  161.1714 C.2     1  UNL1        0.4050
     18 O         139.4226  145.9061  161.7571 O.3     1  UNL1       -0.4326
     19 C         138.7321  145.1324  162.8409 C.3     1  UNL1        0.2316
     20 C         139.3735  143.7791  162.9250 C.3     1  UNL1        0.1440
     21 N         140.4605  143.7164  161.8932 N.am    1  UNL1       -0.2437
     22 O         138.6015  138.6287  165.7075 O.3     1  UNL1       -0.4313
     23 C         139.0720  139.6079  166.7419 C.ar    1  UNL1        0.2628
     24 N         138.9269  139.4590  168.2274 N.ar    1  UNL1       -0.2050
     25 C         139.5354  140.6670  168.8759 C.ar    1  UNL1        0.0910
     26 C         139.6823  141.0672  170.3140 C.ar    1  UNL1        0.0197
     27 C         140.3503  142.3629  170.6674 C.ar    1  UNL1        0.0016
     28 C         140.8714  143.2584  169.5827 C.ar    1  UNL1        0.0006
     29 C         140.7245  142.8581  168.1446 C.ar    1  UNL1        0.0081
     30 C         140.0566  141.5624  167.7912 C.ar    1  UNL1        0.0515
     31 S         139.7701  140.9078  166.4723 S.2     1  UNL1       -0.0283
@<TRIPOS>BOND
     1    16    17    2
     2    17    18    1
     3    18    19    1
     4    19    20    1
     5    20    21    1
     6    21    10    1
     7    10    11    1
     8    11    12    1
     9    12    13    1
    10    13     9    1
    11     9     8    1
    12     8     7    1
    13     7     1    1
    14     1     2   ar
    15     2     3   ar
    16     3     4   ar
    17     4    22    1
    18    22    23    1
    19    23    24   ar
    20    24    25   ar
    21    25    26   ar
    22    26    27   ar
    23    27    28   ar
    24    28    29   ar
    25    29    30   ar
    26    30    31   ar
    27     4     5   ar
    28     5     6   ar
    29    13    14    1
    30    14    15    1
    31    21    17   am
    32    15    10    1
    33     6     1   ar
    34    31    23   ar
    35    30    25   ar
@<TRIPOS>MOLECULE
*****
 31 35 0 0 0
SMALL
GASTEIGER

@<TRIPOS>ATOM
      1 C         138.3698  138.9547  162.7121 C.ar    1  UNL1        0.1388
      2 C         138.7968  137.7296  163.4649 C.ar    1  UNL1        0.0400
      3 C         138.8672  137.7564  164.9630 C.ar    1  UNL1        0.0407
      4 C         138.5107  139.0083  165.7083 C.ar    1  UNL1        0.1479
      5 C         138.0837  140.2335  164.9555 C.ar    1  UNL1        0.0407
      6 C         138.0133  140.2067  163.4574 C.ar    1  UNL1        0.0400
      7 O         138.2994  138.9279  161.2139 O.3     1  UNL1       -0.4740
      8 C         139.2989  138.1300  160.4303 C.3     1  UNL1        0.2226
      9 C         140.5966  138.7558  160.0127 C.3     1  UNL1        0.1200
     10 C         142.6641  141.6798  162.7377 C.3     1  UNL1        0.0815
     11 C         141.5132  142.1311  161.8880 C.3     1  UNL1        0.0373
     12 C         140.8240  141.1565  160.9797 C.3     1  UNL1        0.0739
     13 N         141.2857  139.7305  160.9211 N.3     1  UNL1       -0.2695
     14 C         142.4366  139.2792  161.7707 C.3     1  UNL1        0.0739
     15 C         143.1258  140.2539  162.6790 C.3     1  UNL1        0.0373
     16 O         143.1162  144.8582  162.1517 O.2     1  UNL1       -0.2262
     17 C         143.5611  144.1155  163.3766 C.2     1  UNL1        0.4050
     18 O         144.2918  144.7033  164.5473 O.3     1  UNL1       -0.4326
     19 C         144.5357  143.6057  165.5401 C.3     1  UNL1        0.2316
     20 C         143.9556  142.3395  164.9831 C.3     1  UNL1        0.1440
     21 N         143.3533  142.6546  163.6460 N.am    1  UNL1       -0.2437
     22 O         138.5811  139.0352  167.2064 O.3     1  UNL1       -0.4313
     23 C         139.6214  139.8693  167.8935 C.ar    1  UNL1        0.2628
     24 N         140.9916  140.1792  167.3677 N.ar    1  UNL1       -0.2050
     25 C         141.6911  141.0414  168.3763 C.ar    1  UNL1        0.0910
     26 C         143.0609  141.6522  168.3967 C.ar    1  UNL1        0.0197
     27 C         143.4929  142.4860  169.5664 C.ar    1  UNL1        0.0016
     28 C         142.5550  142.7090  170.7156 C.ar    1  UNL1        0.0006
     29 C         141.1852  142.0981  170.6952 C.ar    1  UNL1        0.0081
     30 C         140.7533  141.2643  169.5255 C.ar    1  UNL1        0.0515
     31 S         139.4741  140.5399  169.2271 S.2     1  UNL1       -0.0283
@<TRIPOS>BOND
     1    16    17    2
     2    17    18    1
     3    18    19    1
     4    19    20    1
     5    20    21    1
     6    21    10    1
     7    10    11    1
     8    11    12    1
     9    12    13    1
    10    13     9    1
    11     9     8    1
    12     8     7    1
    13     7     1    1
    14     1     2   ar
    15     2     3   ar
    16     3     4   ar
    17     4    22    1
    18    22    23    1
    19    23    24   ar
    20    24    25   ar
    21    25    26   ar
    22    26    27   ar
    23    27    28   ar
    24    28    29   ar
    25    29    30   ar
    26    30    31   ar
    27     4     5   ar
    28     5     6   ar
    29    13    14    1
    30    14    15    1
    31    21    17   am
    32    15    10    1
    33     6     1   ar
    34    31    23   ar
    35    30    25   ar
@<TRIPOS>MOLECULE
*****
 31 35 0 0 0
SMALL
GASTEIGER

@<TRIPOS>ATOM
      1 C         137.7645  139.4313  161.6536 C.ar    1  UNL1        0.1388
      2 C         138.3167  138.0538  161.8713 C.ar    1  UNL1        0.0400
      3 C         138.8667  137.6696  163.2130 C.ar    1  UNL1        0.0407
      4 C         138.8646  138.6631  164.3368 C.ar    1  UNL1        0.1479
      5 C         138.3124  140.0407  164.1190 C.ar    1  UNL1        0.0407
      6 C         137.7624  140.4248  162.7774 C.ar    1  UNL1        0.0400
      7 O         137.2145  139.8155  160.3119 O.3     1  UNL1       -0.4740
      8 C         138.0498  140.6210  159.3615 C.3     1  UNL1        0.2226
      9 C         139.5208  140.3525  159.2433 C.3     1  UNL1        0.1200
     10 C         142.3398  141.8239  162.4273 C.3     1  UNL1        0.0815
     11 C         141.4458  142.7924  161.7113 C.3     1  UNL1        0.0373
     12 C         140.5061  142.3020  160.6500 C.3     1  UNL1        0.0739
     13 N         140.4605  140.8430  160.3047 N.3     1  UNL1       -0.2695
     14 C         141.3546  139.8745  161.0207 C.3     1  UNL1        0.0739
     15 C         142.2942  140.3649  162.0820 C.3     1  UNL1        0.0373
     16 O         145.5969  141.6417  162.3388 O.2     1  UNL1       -0.2262
     17 C         144.7766  142.2307  163.4480 C.2     1  UNL1        0.4050
     18 O         145.3094  142.8393  164.7112 O.3     1  UNL1       -0.4326
     19 C         144.1416  143.2991  165.5326 C.3     1  UNL1        0.2316
     20 C         142.8870  142.9748  164.7771 C.3     1  UNL1        0.1440
     21 N         143.2795  142.3144  163.4887 N.am    1  UNL1       -0.2437
     22 O         139.4146  138.2790  165.6784 O.3     1  UNL1       -0.4313
     23 C         139.7233  139.3390  166.6939 C.ar    1  UNL1        0.2628
     24 N         139.0086  139.5473  167.9961 N.ar    1  UNL1       -0.2050
     25 C         139.6445  140.7138  168.6925 C.ar    1  UNL1        0.0910
     26 C         139.3580  141.3754  170.0078 C.ar    1  UNL1        0.0197
     27 C         140.1792  142.5497  170.4512 C.ar    1  UNL1        0.0016
     28 C         141.2868  143.0624  169.5793 C.ar    1  UNL1        0.0006
     29 C         141.5733  142.4008  168.2640 C.ar    1  UNL1        0.0081
     30 C         140.7522  141.2265  167.8205 C.ar    1  UNL1        0.0515
     31 S         140.8008  140.3768  166.5854 S.2     1  UNL1       -0.0283
@<TRIPOS>BOND
     1    16    17    2
     2    17    18    1
     3    18    19    1
     4    19    20    1
     5    20    21    1
     6    21    10    1
     7    10    11    1
     8    11    12    1
     9    12    13    1
    10    13     9    1
    11     9     8    1
    12     8     7    1
    13     7     1    1
    14     1     2   ar
    15     2     3   ar
    16     3     4   ar
    17     4    22    1
    18    22    23    1
    19    23    24   ar
    20    24    25   ar
    21    25    26   ar
    22    26    27   ar
    23    27    28   ar
    24    28    29   ar
    25    29    30   ar
    26    30    31   ar
    27     4     5   ar
    28     5     6   ar
    29    13    14    1
    30    14    15    1
    31    21    17   am
    32    15    10    1
    33     6     1   ar
    34    31    23   ar
    35    30    25   ar
@<TRIPOS>MOLECULE
*****
 31 35 0 0 0
SMALL
GASTEIGER

@<TRIPOS>ATOM
      1 C         140.4102  139.8166  167.2741 C.ar    1  UNL1        0.1388
      2 C         138.9353  139.5548  167.1953 C.ar    1  UNL1        0.0400
      3 C         138.3693  138.7967  166.0312 C.ar    1  UNL1        0.0407
      4 C         139.2782  138.3006  164.9459 C.ar    1  UNL1        0.1479
      5 C         140.7531  138.5624  165.0248 C.ar    1  UNL1        0.0407
      6 C         141.3190  139.3204  166.1888 C.ar    1  UNL1        0.0400
      7 O         140.9762  140.5746  168.4382 O.3     1  UNL1       -0.4740
      8 C         141.3725  142.0121  168.2759 C.3     1  UNL1        0.2226
      9 C         140.3833  143.0075  167.7461 C.3     1  UNL1        0.1200
     10 C         140.1283  143.7897  163.3219 C.3     1  UNL1        0.0815
     11 C         139.0225  144.2426  164.2286 C.3     1  UNL1        0.0373
     12 C         139.1075  143.9819  165.7033 C.3     1  UNL1        0.0739
     13 N         140.2983  143.2683  166.2713 N.3     1  UNL1       -0.2695
     14 C         141.4041  142.8154  165.3646 C.3     1  UNL1        0.0739
     15 C         141.3192  143.0761  163.8900 C.3     1  UNL1        0.0373
     16 O         139.9082  146.7196  161.9016 O.2     1  UNL1       -0.2262
     17 C         139.9421  145.3972  161.1944 C.2     1  UNL1        0.4050
     18 O         139.8808  145.1894  159.7101 O.3     1  UNL1       -0.4326
     19 C         139.9441  143.7143  159.4456 C.3     1  UNL1        0.2316
     20 C         140.0445  143.0104  160.7664 C.3     1  UNL1        0.1440
     21 N         140.0433  144.0505  161.8472 N.am    1  UNL1       -0.2437
     22 O         138.7122  137.5426  163.7819 O.3     1  UNL1       -0.4313
     23 C         138.8290  138.1014  162.3947 C.ar    1  UNL1        0.2628
     24 N         139.8909  137.7581  161.3924 N.ar    1  UNL1       -0.2050
     25 C         139.6226  138.5462  160.1446 C.ar    1  UNL1        0.0910
     26 C         140.3376  138.6149  158.8278 C.ar    1  UNL1        0.0197
     27 C         139.8250  139.5140  157.7421 C.ar    1  UNL1        0.0016
     28 C         138.5973  140.3443  157.9732 C.ar    1  UNL1        0.0006
     29 C         137.8823  140.2755  159.2900 C.ar    1  UNL1        0.0081
     30 C         138.3950  139.3765  160.3757 C.ar    1  UNL1        0.0515
     31 S         137.9045  139.1016  161.7664 S.2     1  UNL1       -0.0283
@<TRIPOS>BOND
     1    16    17    2
     2    17    18    1
     3    18    19    1
     4    19    20    1
     5    20    21    1
     6    21    10    1
     7    10    11    1
     8    11    12    1
     9    12    13    1
    10    13     9    1
    11     9     8    1
    12     8     7    1
    13     7     1    1
    14     1     2   ar
    15     2     3   ar
    16     3     4   ar
    17     4    22    1
    18    22    23    1
    19    23    24   ar
    20    24    25   ar
    21    25    26   ar
    22    26    27   ar
    23    27    28   ar
    24    28    29   ar
    25    29    30   ar
    26    30    31   ar
    27     4     5   ar
    28     5     6   ar
    29    13    14    1
    30    14    15    1
    31    21    17   am
    32    15    10    1
    33     6     1   ar
    34    31    23   ar
    35    30    25   ar
@<TRIPOS>MOLECULE
*****
 31 35 0 0 0
SMALL
GASTEIGER

@<TRIPOS>ATOM
      1 C         142.5376  144.3102  161.9282 C.ar    1  UNL1        0.1388
      2 C         142.7310  142.8249  161.8487 C.ar    1  UNL1        0.0400
      3 C         143.2371  142.0695  163.0418 C.ar    1  UNL1        0.0407
      4 C         143.5498  142.7995  164.3143 C.ar    1  UNL1        0.1479
      5 C         143.3564  144.2849  164.3937 C.ar    1  UNL1        0.0407
      6 C         142.8503  145.0402  163.2007 C.ar    1  UNL1        0.0400
      7 O         142.0314  145.0656  160.7352 O.3     1  UNL1       -0.4740
      8 C         140.5591  145.1255  160.4547 C.3     1  UNL1        0.2226
      9 C         139.5763  145.0355  161.5842 C.3     1  UNL1        0.1200
     10 C         139.0036  141.1403  163.7635 C.3     1  UNL1        0.0815
     11 C         139.3644  142.3804  164.5263 C.3     1  UNL1        0.0373
     12 C         139.5553  143.6788  163.7999 C.3     1  UNL1        0.0739
     13 N         139.3854  143.7370  162.3107 N.3     1  UNL1       -0.2695
     14 C         139.0246  142.4969  161.5480 C.3     1  UNL1        0.0739
     15 C         138.8337  141.1985  162.2744 C.3     1  UNL1        0.0373
     16 O         139.9314  138.1959  162.7055 O.2     1  UNL1       -0.2262
     17 C         139.2392  138.4885  164.0037 C.2     1  UNL1        0.4050
     18 O         138.8519  137.4791  165.0435 O.3     1  UNL1       -0.4326
     19 C         138.1861  138.2086  166.1724 C.3     1  UNL1        0.2316
     20 C         138.1619  139.6688  165.8304 C.3     1  UNL1        0.1440
     21 N         138.8127  139.8418  164.4900 N.am    1  UNL1       -0.2437
     22 O         144.0560  142.0442  165.5073 O.3     1  UNL1       -0.4313
     23 C         143.1779  141.8666  166.7104 C.ar    1  UNL1        0.2628
     24 N         143.3146  142.5914  168.0165 N.ar    1  UNL1       -0.2050
     25 C         142.2301  142.1058  168.9319 C.ar    1  UNL1        0.0910
     26 C         141.8732  142.4645  170.3440 C.ar    1  UNL1        0.0197
     27 C         140.7093  141.7982  171.0157 C.ar    1  UNL1        0.0016
     28 C         139.9022  140.7733  170.2753 C.ar    1  UNL1        0.0006
     29 C         140.2591  140.4146  168.8633 C.ar    1  UNL1        0.0081
     30 C         141.4230  141.0809  168.1916 C.ar    1  UNL1        0.0515
     31 S         142.0088  140.9331  166.8186 S.2     1  UNL1       -0.0283
@<TRIPOS>BOND
     1    16    17    2
     2    17    18    1
     3    18    19    1
     4    19    20    1
     5    20    21    1
     6    21    10    1
     7    10    11    1
     8    11    12    1
     9    12    13    1
    10    13     9    1
    11     9     8    1
    12     8     7    1
    13     7     1    1
    14     1     2   ar
    15     2     3   ar
    16     3     4   ar
    17     4    22    1
    18    22    23    1
    19    23    24   ar
    20    24    25   ar
    21    25    26   ar
    22    26    27   ar
    23    27    28   ar
    24    28    29   ar
    25    29    30   ar
    26    30    31   ar
    27     4     5   ar
    28     5     6   ar
    29    13    14    1
    30    14    15    1
    31    21    17   am
    32    15    10    1
    33     6     1   ar
    34    31    23   ar
    35    30    25   ar
@<TRIPOS>MOLECULE
*****
 31 35 0 0 0
SMALL
GASTEIGER

@<TRIPOS>ATOM
      1 C         143.3383  139.7768  159.1506 C.ar    1  UNL1        0.1388
      2 C         144.0648  139.1602  160.3090 C.ar    1  UNL1        0.0400
      3 C         143.3224  138.2991  161.2875 C.ar    1  UNL1        0.0407
      4 C         141.8535  138.0545  161.1074 C.ar    1  UNL1        0.1479
      5 C         141.1270  138.6711  159.9489 C.ar    1  UNL1        0.0407
      6 C         141.8694  139.5323  158.9705 C.ar    1  UNL1        0.0400
      7 O         144.0808  140.6380  158.1722 O.3     1  UNL1       -0.4740
      8 C         144.5836  141.9875  158.5917 C.3     1  UNL1        0.2226
      9 C         143.6712  143.1769  158.5408 C.3     1  UNL1        0.1200
     10 C         140.7069  143.8820  161.8523 C.3     1  UNL1        0.0815
     11 C         142.0312  143.2455  162.1541 C.3     1  UNL1        0.0373
     12 C         143.0193  143.0104  161.0503 C.3     1  UNL1        0.0739
     13 N         142.6831  143.4119  159.6447 N.3     1  UNL1       -0.2695
     14 C         141.3587  144.0484  159.3429 C.3     1  UNL1        0.0739
     15 C         140.3707  144.2834  160.4467 C.3     1  UNL1        0.0373
     16 O         137.5372  143.1085  161.7862 O.2     1  UNL1       -0.2262
     17 C         138.2618  143.7615  162.9258 C.2     1  UNL1        0.4050
     18 O         137.6568  144.1735  164.2350 O.3     1  UNL1       -0.4326
     19 C         138.7397  144.7837  165.0745 C.3     1  UNL1        0.2316
     20 C         140.0141  144.7488  164.2841 C.3     1  UNL1        0.1440
     21 N         139.7188  144.1170  162.9561 N.am    1  UNL1       -0.2437
     22 O         141.1110  137.1934  162.0857 O.3     1  UNL1       -0.4313
     23 C         140.6291  137.7749  163.3817 C.ar    1  UNL1        0.2628
     24 N         139.2560  137.6142  163.9637 N.ar    1  UNL1       -0.2050
     25 C         139.2139  138.3592  165.2650 C.ar    1  UNL1        0.0910
     26 C         138.1229  138.5522  166.2762 C.ar    1  UNL1        0.0197
     27 C         138.3792  139.3663  167.5096 C.ar    1  UNL1        0.0016
     28 C         139.7263  139.9875  167.7319 C.ar    1  UNL1        0.0006
     29 C         140.8172  139.7945  166.7207 C.ar    1  UNL1        0.0081
     30 C         140.5610  138.9803  165.4872 C.ar    1  UNL1        0.0515
     31 S         141.4356  138.6192  164.3233 S.2     1  UNL1       -0.0283
@<TRIPOS>BOND
     1    16    17    2
     2    17    18    1
     3    18    19    1
     4    19    20    1
     5    20    21    1
     6    21    10    1
     7    10    11    1
     8    11    12    1
     9    12    13    1
    10    13     9    1
    11     9     8    1
    12     8     7    1
    13     7     1    1
    14     1     2   ar
    15     2     3   ar
    16     3     4   ar
    17     4    22    1
    18    22    23    1
    19    23    24   ar
    20    24    25   ar
    21    25    26   ar
    22    26    27   ar
    23    27    28   ar
    24    28    29   ar
    25    29    30   ar
    26    30    31   ar
    27     4     5   ar
    28     5     6   ar
    29    13    14    1
    30    14    15    1
    31    21    17   am
    32    15    10    1
    33     6     1   ar
    34    31    23   ar
    35    30    25   ar
@<TRIPOS>MOLECULE
*****
 31 35 0 0 0
SMALL
GASTEIGER

@<TRIPOS>ATOM
      1 C         138.6290  139.1332  166.1509 C.ar    1  UNL1        0.1388
      2 C         138.2677  140.3373  165.3327 C.ar    1  UNL1        0.0400
      3 C         138.1989  140.2351  163.8377 C.ar    1  UNL1        0.0407
      4 C         138.4914  138.9288  163.1610 C.ar    1  UNL1        0.1479
      5 C         138.8528  137.7247  163.9793 C.ar    1  UNL1        0.0407
      6 C         138.9216  137.8269  165.4742 C.ar    1  UNL1        0.0400
      7 O         138.6978  139.2354  167.6459 O.3     1  UNL1       -0.4740
      8 C         139.6965  140.1507  168.2899 C.3     1  UNL1        0.2226
      9 C         141.1537  140.0233  167.9579 C.3     1  UNL1        0.1200
     10 C         142.7193  141.6180  164.0520 C.3     1  UNL1        0.0815
     11 C         142.1547  142.5595  165.0742 C.3     1  UNL1        0.0373
     12 C         141.6329  142.0279  166.3762 C.3     1  UNL1        0.0739
     13 N         141.6756  140.5549  166.6559 N.3     1  UNL1       -0.2695
     14 C         142.2401  139.6134  165.6337 C.3     1  UNL1        0.0739
     15 C         142.7620  140.1450  164.3317 C.3     1  UNL1        0.0373
     16 O         145.8221  141.5199  163.0456 O.2     1  UNL1       -0.2262
     17 C         144.6674  142.1045  162.2875 C.2     1  UNL1        0.4050
     18 O         144.7361  142.7467  160.9337 O.3     1  UNL1       -0.4326
     19 C         143.3524  143.1888  160.5595 C.3     1  UNL1        0.2316
     20 C         142.4285  142.8198  161.6821 C.3     1  UNL1        0.1440
     21 N         143.2412  142.1497  162.7500 N.am    1  UNL1       -0.2437
     22 O         138.4227  138.8266  161.6661 O.3     1  UNL1       -0.4313
     23 C         139.6083  139.2132  160.8325 C.ar    1  UNL1        0.2628
     24 N         141.0453  138.9355  161.1611 N.ar    1  UNL1       -0.2050
     25 C         141.8903  139.4960  160.0557 C.ar    1  UNL1        0.0910
     26 C         143.3744  139.5188  159.8398 C.ar    1  UNL1        0.0197
     27 C         143.9438  140.1656  158.6120 C.ar    1  UNL1        0.0016
     28 C         143.0290  140.7896  157.6003 C.ar    1  UNL1        0.0006
     29 C         141.5449  140.7669  157.8162 C.ar    1  UNL1        0.0081
     30 C         140.9755  140.1201  159.0439 C.ar    1  UNL1        0.0515
     31 S         139.5652  139.9453  159.5241 S.2     1  UNL1       -0.0283
@<TRIPOS>BOND
     1    16    17    2
     2    17    18    1
     3    18    19    1
     4    19    20    1
     5    20    21    1
     6    21    10    1
     7    10    11    1
     8    11    12    1
     9    12    13    1
    10    13     9    1
    11     9     8    1
    12     8     7    1
    13     7     1    1
    14     1     2   ar
    15     2     3   ar
    16     3     4   ar
    17     4    22    1
    18    22    23    1
    19    23    24   ar
    20    24    25   ar
    21    25    26   ar
    22    26    27   ar
    23    27    28   ar
    24    28    29   ar
    25    29    30   ar
    26    30    31   ar
    27     4     5   ar
    28     5     6   ar
    29    13    14    1
    30    14    15    1
    31    21    17   am
    32    15    10    1
    33     6     1   ar
    34    31    23   ar
    35    30    25   ar
@<TRIPOS>MOLECULE
*****
 31 35 0 0 0
SMALL
GASTEIGER

@<TRIPOS>ATOM
      1 C         144.3051  141.9794  159.5618 C.ar    1  UNL1        0.1388
      2 C         144.6804  142.4896  160.9215 C.ar    1  UNL1        0.0400
      3 C         144.6016  141.5801  162.1118 C.ar    1  UNL1        0.0407
      4 C         144.1477  140.1605  161.9423 C.ar    1  UNL1        0.1479
      5 C         143.7724  139.6504  160.5825 C.ar    1  UNL1        0.0407
      6 C         143.8511  140.5599  159.3923 C.ar    1  UNL1        0.0400
      7 O         144.3838  142.8889  158.3714 O.3     1  UNL1       -0.4740
      8 C         143.2356  142.9661  157.4094 C.3     1  UNL1        0.2226
      9 C         142.1360  143.9616  157.6324 C.3     1  UNL1        0.1200
     10 C         139.9529  144.0594  161.5661 C.3     1  UNL1        0.0815
     11 C         140.2000  142.7497  160.8778 C.3     1  UNL1        0.0373
     12 C         140.9277  142.7171  159.5666 C.3     1  UNL1        0.0739
     13 N         141.4083  143.9942  158.9437 N.3     1  UNL1       -0.2695
     14 C         141.1612  145.3038  159.6320 C.3     1  UNL1        0.0739
     15 C         140.4335  145.3364  160.9432 C.3     1  UNL1        0.0373
     16 O         137.2772  142.3491  162.3179 O.2     1  UNL1       -0.2262
     17 C         137.9953  143.3058  163.2230 C.2     1  UNL1        0.4050
     18 O         137.6096  143.6443  164.6324 O.3     1  UNL1       -0.4326
     19 C         138.6011  144.6396  165.1580 C.3     1  UNL1        0.2316
     20 C         139.5996  144.9162  164.0734 C.3     1  UNL1        0.1440
     21 N         139.2252  144.0919  162.8774 N.am    1  UNL1       -0.2437
     22 O         144.0689  139.2511  163.1325 O.3     1  UNL1       -0.4313
     23 C         142.7827  139.1209  163.8932 C.ar    1  UNL1        0.2628
     24 N         142.3378  139.9938  165.0290 N.ar    1  UNL1       -0.2050
     25 C         140.9957  139.5074  165.4894 C.ar    1  UNL1        0.0910
     26 C         140.0741  139.9814  166.5738 C.ar    1  UNL1        0.0197
     27 C         138.7679  139.2819  166.8069 C.ar    1  UNL1        0.0016
     28 C         138.3832  138.1084  165.9556 C.ar    1  UNL1        0.0006
     29 C         139.3047  137.6343  164.8712 C.ar    1  UNL1        0.0081
     30 C         140.6110  138.3338  164.6381 C.ar    1  UNL1        0.0515
     31 S         141.7154  138.0950  163.6516 S.2     1  UNL1       -0.0283
@<TRIPOS>BOND
     1    16    17    2
     2    17    18    1
     3    18    19    1
     4    19    20    1
     5    20    21    1
     6    21    10    1
     7    10    11    1
     8    11    12    1
     9    12    13    1
    10    13     9    1
    11     9     8    1
    12     8     7    1
    13     7     1    1
    14     1     2   ar
    15     2     3   ar
    16     3     4   ar
    17     4    22    1
    18    22    23    1
    19    23    24   ar
    20    24    25   ar
    21    25    26   ar
    22    26    27   ar
    23    27    28   ar
    24    28    29   ar
    25    29    30   ar
    26    30    31   ar
    27     4     5   ar
    28     5     6   ar
    29    13    14    1
    30    14    15    1
    31    21    17   am
    32    15    10    1
    33     6     1   ar
    34    31    23   ar
    35    30    25   ar
@<TRIPOS>MOLECULE
*****
 31 35 0 0 0
SMALL
GASTEIGER

@<TRIPOS>ATOM
      1 C         143.4643  139.2510  159.2824 C.ar    1  UNL1        0.1388
      2 C         141.9855  139.0737  159.1048 C.ar    1  UNL1        0.0400
      3 C         141.1764  138.4038  160.1758 C.ar    1  UNL1        0.0407
      4 C         141.8463  137.9114  161.4242 C.ar    1  UNL1        0.1479
      5 C         143.3252  138.0887  161.6018 C.ar    1  UNL1        0.0407
      6 C         144.1341  138.7586  160.5309 C.ar    1  UNL1        0.0400
      7 O         144.2733  139.9209  158.2115 O.3     1  UNL1       -0.4740
      8 C         144.2594  141.4155  158.0853 C.3     1  UNL1        0.2226
      9 C         144.3610  142.2726  159.3121 C.3     1  UNL1        0.1200
     10 C         140.7498  142.9022  161.9223 C.3     1  UNL1        0.0815
     11 C         140.6116  142.9391  160.4291 C.3     1  UNL1        0.0373
     12 C         141.8153  142.7292  159.5591 C.3     1  UNL1        0.0739
     13 N         143.1572  142.4825  160.1822 N.3     1  UNL1       -0.2695
     14 C         143.2954  142.4456  161.6753 C.3     1  UNL1        0.0739
     15 C         142.0918  142.6555  162.5454 C.3     1  UNL1        0.0373
     16 O         138.8514  145.5563  161.9626 O.2     1  UNL1       -0.2262
     17 C         138.6734  144.3320  162.8109 C.2     1  UNL1        0.4050
     18 O         137.5917  144.1127  163.8266 O.3     1  UNL1       -0.4326
     19 C         137.7957  142.7573  164.4358 C.3     1  UNL1        0.2316
     20 C         139.0036  142.1389  163.7966 C.3     1  UNL1        0.1440
     21 N         139.5460  143.1121  162.7924 N.am    1  UNL1       -0.2437
     22 O         141.0373  137.2415  162.4951 O.3     1  UNL1       -0.4313
     23 C         140.8248  137.9256  163.8130 C.ar    1  UNL1        0.2628
     24 N         141.8998  138.4576  164.7138 N.ar    1  UNL1       -0.2050
     25 C         141.2394  139.0587  165.9190 C.ar    1  UNL1        0.0910
     26 C         141.7970  139.7314  167.1382 C.ar    1  UNL1        0.0197
     27 C         140.8713  140.2436  168.2016 C.ar    1  UNL1        0.0016
     28 C         139.3881  140.0830  168.0458 C.ar    1  UNL1        0.0006
     29 C         138.8305  139.4103  166.8266 C.ar    1  UNL1        0.0081
     30 C         139.7562  138.8981  165.7632 C.ar    1  UNL1        0.0515
     31 S         139.5000  138.1979  164.4616 S.2     1  UNL1       -0.0283
@<TRIPOS>BOND
     1    16    17    2
     2    17    18    1
     3    18    19    1
     4    19    20    1
     5    20    21    1
     6    21    10    1
     7    10    11    1
     8    11    12    1
     9    12    13    1
    10    13     9    1
    11     9     8    1
    12     8     7    1
    13     7     1    1
    14     1     2   ar
    15     2     3   ar
    16     3     4   ar
    17     4    22    1
    18    22    23    1
    19    23    24   ar
    20    24    25   ar
    21    25    26   ar
    22    26    27   ar
    23    27    28   ar
    24    28    29   ar
    25    29    30   ar
    26    30    31   ar
    27     4     5   ar
    28     5     6   ar
    29    13    14    1
    30    14    15    1
    31    21    17   am
    32    15    10    1
    33     6     1   ar
    34    31    23   ar
    35    30    25   ar
