@<TRIPOS>MOLECULE
*****
 33 38 0 0 0
SMALL
GASTEIGER

@<TRIPOS>ATOM
      1 C         142.2650  140.5256  163.0180 C.ar    1  UNL1        0.1170
      2 N         141.8410  140.3595  164.4472 N.ar    1  UNL1       -0.2264
      3 C         140.9856  141.4034  165.1019 C.ar    1  UNL1        0.1602
      4 N         140.5543  142.6134  164.3275 N.ar    1  UNL1       -0.2091
      5 C         140.9783  142.7796  162.8983 C.ar    1  UNL1        0.1690
      6 C         141.8336  141.7357  162.2435 C.ar    1  UNL1        0.1850
      7 O         142.2576  141.9019  160.8143 O.3     1  UNL1       -0.4695
      8 C         141.8263  143.1119  160.0399 C.3     1  UNL1        0.2277
      9 C         140.9709  144.1558  160.6946 C.3     1  UNL1        0.1477
     10 C         140.5396  145.3658  159.9202 C.3     1  UNL1        0.1657
     11 O         139.6843  146.4097  160.5750 O.3     1  UNL1       -0.3501
     12 C         139.2603  146.2436  162.0042 C.3     1  UNL1        0.1636
     13 C         139.6917  145.0335  162.7786 C.3     1  UNL1        0.1244
     14 N         140.5469  143.9897  162.1239 N.pl3   1  UNL1       -0.2840
     15 C         140.5617  141.2373  166.5311 C.2     1  UNL1        0.0230
     16 C         141.2145  142.0538  167.6069 C.2     1  UNL1       -0.0005
     17 C         140.7905  141.8877  169.0361 C.2     1  UNL1        0.0010
     18 C         139.7137  140.9050  169.3896 C.2     1  UNL1        0.0153
     19 C         139.0609  140.0885  168.3139 C.2     1  UNL1        0.0669
     20 N         137.9802  139.0493  168.3589 N.2     1  UNL1       -0.2478
     21 C         137.7363  138.5731  166.9576 C.2     1  UNL1        0.0946
     22 C         138.6662  139.3181  166.0464 C.2     1  UNL1        0.0046
     23 C         139.4849  140.2547  166.8846 C.3     1  UNL1        0.0888
     24 C         143.1202  139.4818  162.3632 C.3     1  UNL1        0.1533
     25 C         141.7987  139.1743  161.7237 C.3     1  UNL1        0.0599
     26 C         141.6882  138.0557  160.7305 C.3     1  UNL1        0.1443
     27 O         142.8994  137.2445  160.3768 O.3     1  UNL1       -0.3536
     28 C         144.2209  137.5519  161.0163 C.3     1  UNL1        0.1443
     29 C         144.3314  138.6705  162.0095 C.3     1  UNL1        0.0599
     30 C         145.1693  140.8217  164.0971 C.3     1  UNL1        0.1764
     31 S         144.1447  140.1517  163.2301 S.O2    1  UNL1       -0.0062
     32 O         144.4267  141.0444  162.6649 O.2     1  UNL1       -0.1727
     33 O         144.0016  139.0569  164.2454 O.2     1  UNL1       -0.1727
@<TRIPOS>BOND
     1    30    31    1
     2    31    32    2
     3    31    33    2
     4    31    24    1
     5    24     1    1
     6     1     2   ar
     7     2     3   ar
     8     3    15    1
     9    15    16    2
    10    16    17    1
    11    17    18    2
    12    18    19    1
    13    19    20    2
    14    20    21    1
    15    21    22    2
    16    22    23    1
    17     3     4   ar
    18     4     5   ar
    19     5     6   ar
    20     6     7    1
    21     7     8    1
    22     9     8    1
    23     9    10    1
    24    10    11    1
    25    11    12    1
    26    12    13    1
    27    13    14    1
    28    24    25    1
    29    25    26    1
    30    26    27    1
    31    27    28    1
    32    28    29    1
    33    29    24    1
    34     6     1   ar
    35    14     9    1
    36    23    15    1
    37    14     5    1
    38    23    19    1
@<TRIPOS>MOLECULE
*****
 33 38 0 0 0
SMALL
GASTEIGER

@<TRIPOS>ATOM
      1 C         142.2822  140.3676  163.1425 C.ar    1  UNL1        0.1170
      2 N         141.9277  140.1516  164.5839 N.ar    1  UNL1       -0.2264
      3 C         141.0873  141.1607  165.3089 C.ar    1  UNL1        0.1602
      4 N         140.6015  142.3858  164.5925 N.ar    1  UNL1       -0.2091
      5 C         140.9561  142.6017  163.1511 C.ar    1  UNL1        0.1690
      6 C         141.7964  141.5927  162.4261 C.ar    1  UNL1        0.1850
      7 O         142.1509  141.8087  160.9847 O.3     1  UNL1       -0.4695
      8 C         141.6651  143.0337  160.2683 C.3     1  UNL1        0.2277
      9 C         140.8248  144.0428  160.9933 C.3     1  UNL1        0.1477
     10 C         140.3390  145.2678  160.2768 C.3     1  UNL1        0.1657
     11 O         139.4987  146.2769  161.0018 O.3     1  UNL1       -0.3501
     12 C         139.1441  146.0609  162.4432 C.3     1  UNL1        0.1636
     13 C         139.6299  144.8359  163.1597 C.3     1  UNL1        0.1244
     14 N         140.4702  143.8268  162.4347 N.pl3   1  UNL1       -0.2840
     15 C         140.7327  140.9448  166.7503 C.2     1  UNL1        0.0230
     16 C         139.4612  140.2358  167.1118 C.2     1  UNL1       -0.0005
     17 C         139.1066  140.0198  168.5532 C.2     1  UNL1        0.0010
     18 C         140.0236  140.5128  169.6331 C.2     1  UNL1        0.0153
     19 C         141.2951  141.2217  169.2716 C.2     1  UNL1        0.0669
     20 N         142.3872  141.8149  170.1115 N.2     1  UNL1       -0.2478
     21 C         143.4167  142.3976  169.1892 C.2     1  UNL1        0.0946
     22 C         142.9609  142.1644  167.7793 C.2     1  UNL1        0.0046
     23 C         141.6497  141.4377  167.8302 C.3     1  UNL1        0.0888
     24 C         143.1225  139.3586  162.4175 C.3     1  UNL1        0.1533
     25 C         141.7793  139.0541  161.8232 C.3     1  UNL1        0.0599
     26 C         141.6416  137.9682  160.7978 C.3     1  UNL1        0.1443
     27 O         142.8472  137.1865  160.3666 O.3     1  UNL1       -0.3536
     28 C         144.1903  137.4909  160.9609 C.3     1  UNL1        0.1443
     29 C         144.3280  138.5769  161.9864 C.3     1  UNL1        0.0599
     30 C         145.2252  140.6683  164.1098 C.3     1  UNL1        0.1764
     31 S         144.1738  140.0134  163.2636 S.O2    1  UNL1       -0.0062
     32 O         144.4404  140.9144  162.7042 O.2     1  UNL1       -0.1727
     33 O         144.0591  138.9030  164.2656 O.2     1  UNL1       -0.1727
@<TRIPOS>BOND
     1    30    31    1
     2    31    32    2
     3    31    33    2
     4    31    24    1
     5    24     1    1
     6     1     2   ar
     7     2     3   ar
     8     3    15    1
     9    15    16    2
    10    16    17    1
    11    17    18    2
    12    18    19    1
    13    19    20    2
    14    20    21    1
    15    21    22    2
    16    22    23    1
    17     3     4   ar
    18     4     5   ar
    19     5     6   ar
    20     6     7    1
    21     7     8    1
    22     9     8    1
    23     9    10    1
    24    10    11    1
    25    11    12    1
    26    12    13    1
    27    13    14    1
    28    24    25    1
    29    25    26    1
    30    26    27    1
    31    27    28    1
    32    28    29    1
    33    29    24    1
    34     6     1   ar
    35    14     9    1
    36    23    15    1
    37    14     5    1
    38    23    19    1
@<TRIPOS>MOLECULE
*****
 33 38 0 0 0
SMALL
GASTEIGER

@<TRIPOS>ATOM
      1 C         141.3424  140.1372  162.7178 C.ar    1  UNL1        0.1170
      2 N         141.0700  140.0272  164.1888 N.ar    1  UNL1       -0.2264
      3 C         140.4973  141.1958  164.9349 C.ar    1  UNL1        0.1602
      4 N         140.1971  142.4742  164.2101 N.ar    1  UNL1       -0.2091
      5 C         140.4695  142.5842  162.7392 C.ar    1  UNL1        0.1690
      6 C         141.0422  141.4158  161.9930 C.ar    1  UNL1        0.1850
      7 O         141.3146  141.5257  160.5221 O.3     1  UNL1       -0.4695
      8 C         141.0144  142.8042  159.7973 C.3     1  UNL1        0.2277
      9 C         140.4417  143.9727  160.5434 C.3     1  UNL1        0.1477
     10 C         140.1415  145.2512  159.8186 C.3     1  UNL1        0.1657
     11 O         139.5689  146.4196  160.5647 O.3     1  UNL1       -0.3501
     12 C         139.2965  146.3096  162.0357 C.3     1  UNL1        0.1636
     13 C         139.5967  145.0312  162.7605 C.3     1  UNL1        0.1244
     14 N         140.1693  143.8627  162.0143 N.pl3   1  UNL1       -0.2840
     15 C         140.2249  141.0858  166.4059 C.2     1  UNL1        0.0230
     16 C         140.9765  141.9502  167.3745 C.2     1  UNL1       -0.0005
     17 C         140.7041  141.8402  168.8454 C.2     1  UNL1        0.0010
     18 C         139.6801  140.8658  169.3478 C.2     1  UNL1        0.0153
     19 C         138.9286  140.0015  168.3792 C.2     1  UNL1        0.0669
     20 N         137.8696  138.9579  168.5777 N.2     1  UNL1       -0.2478
     21 C         137.4875  138.4230  167.2294 C.2     1  UNL1        0.0946
     22 C         138.3104  139.1359  166.1977 C.2     1  UNL1        0.0046
     23 C         139.2011  140.1115  166.9082 C.3     1  UNL1        0.0888
     24 C         141.9150  138.9688  161.9717 C.3     1  UNL1        0.1533
     25 C         143.0836  139.9079  161.9215 C.3     1  UNL1        0.0599
     26 C         144.3499  139.4933  161.2326 C.3     1  UNL1        0.1443
     27 O         144.4476  138.1395  160.5938 O.3     1  UNL1       -0.3536
     28 C         143.2790  137.2005  160.6441 C.3     1  UNL1        0.1443
     29 C         142.0128  137.6151  161.3330 C.3     1  UNL1        0.0599
     30 C         139.1801  137.9022  162.5905 C.3     1  UNL1        0.1764
     31 S         140.5476  138.4355  162.2810 S.O2    1  UNL1       -0.0062
     32 O         139.8883  138.9917  161.6089 O.2     1  UNL1       -0.1727
     33 O         141.1386  137.5161  163.3085 O.2     1  UNL1       -0.1727
@<TRIPOS>BOND
     1    30    31    1
     2    31    32    2
     3    31    33    2
     4    31    24    1
     5    24     1    1
     6     1     2   ar
     7     2     3   ar
     8     3    15    1
     9    15    16    2
    10    16    17    1
    11    17    18    2
    12    18    19    1
    13    19    20    2
    14    20    21    1
    15    21    22    2
    16    22    23    1
    17     3     4   ar
    18     4     5   ar
    19     5     6   ar
    20     6     7    1
    21     7     8    1
    22     9     8    1
    23     9    10    1
    24    10    11    1
    25    11    12    1
    26    12    13    1
    27    13    14    1
    28    24    25    1
    29    25    26    1
    30    26    27    1
    31    27    28    1
    32    28    29    1
    33    29    24    1
    34     6     1   ar
    35    14     9    1
    36    23    15    1
    37    14     5    1
    38    23    19    1
@<TRIPOS>MOLECULE
*****
 33 38 0 0 0
SMALL
GASTEIGER

@<TRIPOS>ATOM
      1 C         141.3662  140.0288  162.7061 C.ar    1  UNL1        0.1170
      2 N         141.1505  139.8399  164.1785 N.ar    1  UNL1       -0.2264
      3 C         140.6009  140.9637  165.0062 C.ar    1  UNL1        0.1602
      4 N         140.2671  142.2763  164.3616 N.ar    1  UNL1       -0.2091
      5 C         140.4829  142.4652  162.8893 C.ar    1  UNL1        0.1690
      6 C         141.0324  141.3415  162.0616 C.ar    1  UNL1        0.1850
      7 O         141.2482  141.5304  160.5892 O.3     1  UNL1       -0.4695
      8 C         140.9144  142.8430  159.9446 C.3     1  UNL1        0.2277
      9 C         140.3648  143.9668  160.7724 C.3     1  UNL1        0.1477
     10 C         140.0310  145.2794  160.1277 C.3     1  UNL1        0.1657
     11 O         139.4814  146.4032  160.9555 O.3     1  UNL1       -0.3501
     12 C         139.2657  146.2143  162.4278 C.3     1  UNL1        0.1636
     13 C         139.5995  144.9016  163.0724 C.3     1  UNL1        0.1244
     14 N         140.1490  143.7779  162.2447 N.pl3   1  UNL1       -0.2840
     15 C         140.3851  140.7748  166.4785 C.2     1  UNL1        0.0230
     16 C         139.1748  140.0378  166.9707 C.2     1  UNL1       -0.0005
     17 C         138.9591  139.8489  168.4431 C.2     1  UNL1        0.0010
     18 C         139.9536  140.3970  169.4232 C.2     1  UNL1        0.0153
     19 C         141.1638  141.1339  168.9310 C.2     1  UNL1        0.0669
     20 N         142.3077  141.7812  169.6539 N.2     1  UNL1       -0.2478
     21 C         143.2304  142.3701  168.6284 C.2     1  UNL1        0.0946
     22 C         142.6568  142.0868  167.2717 C.2     1  UNL1        0.0046
     23 C         141.3795  141.3228  167.4587 C.3     1  UNL1        0.0888
     24 C         141.9158  138.9051  161.8784 C.3     1  UNL1        0.1533
     25 C         143.1049  139.8193  161.8987 C.3     1  UNL1        0.0599
     26 C         144.3642  139.4278  161.1841 C.3     1  UNL1        0.1443
     27 O         144.4346  138.1220  160.4491 O.3     1  UNL1       -0.3536
     28 C         143.2455  137.2079  160.4288 C.3     1  UNL1        0.1443
     29 C         141.9862  137.5994  161.1435 C.3     1  UNL1        0.0599
     30 C         139.1560  137.8572  162.4128 C.3     1  UNL1        0.1764
     31 S         140.5359  138.3812  162.1456 S.O2    1  UNL1       -0.0062
     32 O         139.8968  138.9671  161.4793 O.2     1  UNL1       -0.1727
     33 O         141.0953  137.4221  163.1543 O.2     1  UNL1       -0.1727
@<TRIPOS>BOND
     1    30    31    1
     2    31    32    2
     3    31    33    2
     4    31    24    1
     5    24     1    1
     6     1     2   ar
     7     2     3   ar
     8     3    15    1
     9    15    16    2
    10    16    17    1
    11    17    18    2
    12    18    19    1
    13    19    20    2
    14    20    21    1
    15    21    22    2
    16    22    23    1
    17     3     4   ar
    18     4     5   ar
    19     5     6   ar
    20     6     7    1
    21     7     8    1
    22     9     8    1
    23     9    10    1
    24    10    11    1
    25    11    12    1
    26    12    13    1
    27    13    14    1
    28    24    25    1
    29    25    26    1
    30    26    27    1
    31    27    28    1
    32    28    29    1
    33    29    24    1
    34     6     1   ar
    35    14     9    1
    36    23    15    1
    37    14     5    1
    38    23    19    1
@<TRIPOS>MOLECULE
*****
 33 38 0 0 0
SMALL
GASTEIGER

@<TRIPOS>ATOM
      1 C         141.3863  142.7399  163.0560 C.ar    1  UNL1        0.1170
      2 N         141.5362  142.3174  164.4874 N.ar    1  UNL1       -0.2264
      3 C         142.0065  140.9311  164.8149 C.ar    1  UNL1        0.1602
      4 N         142.3269  139.9675  163.7110 N.ar    1  UNL1       -0.2091
      5 C         142.1771  140.3900  162.2795 C.ar    1  UNL1        0.1690
      6 C         141.7068  141.7762  161.9520 C.ar    1  UNL1        0.1850
      7 O         141.5569  142.1987  160.5206 O.3     1  UNL1       -0.4695
      8 C         141.8773  141.2351  159.4167 C.3     1  UNL1        0.2277
      9 C         142.3476  139.8488  159.7441 C.3     1  UNL1        0.1477
     10 C         142.6680  138.8852  158.6402 C.3     1  UNL1        0.1657
     11 O         143.1383  137.4990  158.9677 O.3     1  UNL1       -0.3501
     12 C         143.2882  137.0765  160.3991 C.3     1  UNL1        0.1636
     13 C         142.9678  138.0401  161.5031 C.3     1  UNL1        0.1244
     14 N         142.4975  139.4263  161.1756 N.pl3   1  UNL1       -0.2840
     15 C         142.1564  140.5085  166.2463 C.2     1  UNL1        0.0230
     16 C         142.9009  139.2506  166.5829 C.2     1  UNL1       -0.0005
     17 C         143.0508  138.8280  168.0144 C.2     1  UNL1        0.0010
     18 C         142.4562  139.6634  169.1092 C.2     1  UNL1        0.0153
     19 C         141.7117  140.9214  168.7725 C.2     1  UNL1        0.0669
     20 N         141.0227  141.9402  169.6311 N.2     1  UNL1       -0.2478
     21 C         140.4470  142.9925  168.7304 C.2     1  UNL1        0.0946
     22 C         140.7802  142.6239  167.3151 C.2     1  UNL1        0.0046
     23 C         141.5618  141.3439  167.3411 C.3     1  UNL1        0.0888
     24 C         140.9161  144.1261  162.7285 C.3     1  UNL1        0.1533
     25 C         139.6101  143.3897  162.6799 C.3     1  UNL1        0.0599
     26 C         138.3442  144.1281  162.3601 C.3     1  UNL1        0.1443
     27 O         138.3842  145.6029  162.0890 O.3     1  UNL1       -0.3536
     28 C         139.6901  146.3392  162.1377 C.3     1  UNL1        0.1443
     29 C         140.9560  145.6008  162.4574 C.3     1  UNL1        0.0599
     30 C         143.8546  144.6360  163.0532 C.3     1  UNL1        0.1764
     31 S         142.3853  144.3810  162.8909 S.O2    1  UNL1       -0.0062
     32 O         142.5529  144.2863  163.9673 O.2     1  UNL1       -0.1727
     33 O         142.5147  144.5785  161.4095 O.2     1  UNL1       -0.1727
@<TRIPOS>BOND
     1    30    31    1
     2    31    32    2
     3    31    33    2
     4    31    24    1
     5    24     1    1
     6     1     2   ar
     7     2     3   ar
     8     3    15    1
     9    15    16    2
    10    16    17    1
    11    17    18    2
    12    18    19    1
    13    19    20    2
    14    20    21    1
    15    21    22    2
    16    22    23    1
    17     3     4   ar
    18     4     5   ar
    19     5     6   ar
    20     6     7    1
    21     7     8    1
    22     9     8    1
    23     9    10    1
    24    10    11    1
    25    11    12    1
    26    12    13    1
    27    13    14    1
    28    24    25    1
    29    25    26    1
    30    26    27    1
    31    27    28    1
    32    28    29    1
    33    29    24    1
    34     6     1   ar
    35    14     9    1
    36    23    15    1
    37    14     5    1
    38    23    19    1
@<TRIPOS>MOLECULE
*****
 33 38 0 0 0
SMALL
GASTEIGER

@<TRIPOS>ATOM
      1 C         139.4251  142.6424  160.7752 C.ar    1  UNL1        0.1170
      2 N         138.8364  143.2912  159.5576 N.ar    1  UNL1       -0.2264
      3 C         139.1043  142.7167  158.1981 C.ar    1  UNL1        0.1602
      4 N         139.9608  141.4935  158.0562 N.ar    1  UNL1       -0.2091
      5 C         140.5495  140.8447  159.2738 C.ar    1  UNL1        0.1690
      6 C         140.2816  141.4191  160.6333 C.ar    1  UNL1        0.1850
      7 O         140.8702  140.7704  161.8509 O.3     1  UNL1       -0.4695
      8 C         141.7267  139.5472  161.7091 C.3     1  UNL1        0.2277
      9 C         141.9947  138.9727  160.3495 C.3     1  UNL1        0.1477
     10 C         142.8512  137.7495  160.2077 C.3     1  UNL1        0.1657
     11 O         143.1190  137.1751  158.8482 O.3     1  UNL1       -0.3501
     12 C         142.5304  137.8239  157.6306 C.3     1  UNL1        0.1636
     13 C         141.6739  139.0471  157.7724 C.3     1  UNL1        0.1244
     14 N         141.4060  139.6215  159.1319 N.pl3   1  UNL1       -0.2840
     15 C         138.5157  143.3655  156.9804 C.2     1  UNL1        0.0230
     16 C         137.2364  142.8432  156.3967 C.2     1  UNL1       -0.0005
     17 C         136.6478  143.4920  155.1791 C.2     1  UNL1        0.0010
     18 C         137.3385  144.6630  154.5452 C.2     1  UNL1        0.0153
     19 C         138.6177  145.1852  155.1290 C.2     1  UNL1        0.0669
     20 N         139.5175  146.3155  154.7252 N.2     1  UNL1       -0.2478
     21 C         140.6622  146.3652  155.6933 C.2     1  UNL1        0.0946
     22 C         140.4699  145.2657  156.6953 C.2     1  UNL1        0.0046
     23 C         139.2063  144.5365  156.3466 C.3     1  UNL1        0.0888
     24 C         139.1572  143.2168  162.1347 C.3     1  UNL1        0.1533
     25 C         138.2240  142.0427  162.1596 C.3     1  UNL1        0.0599
     26 C         137.3793  141.7814  163.3713 C.3     1  UNL1        0.1443
     27 O         137.4679  142.6944  164.5583 O.3     1  UNL1       -0.3536
     28 C         138.4011  143.8685  164.5333 C.3     1  UNL1        0.1443
     29 C         139.2457  144.1297  163.3216 C.3     1  UNL1        0.0599
     30 C         141.2096  145.1661  161.1407 C.3     1  UNL1        0.1764
     31 S         140.1834  144.1914  161.6377 S.O2    1  UNL1       -0.0062
     32 O         141.1305  143.6550  161.7428 O.2     1  UNL1       -0.1727
     33 O         139.1003  145.1928  161.3652 O.2     1  UNL1       -0.1727
@<TRIPOS>BOND
     1    30    31    1
     2    31    32    2
     3    31    33    2
     4    31    24    1
     5    24     1    1
     6     1     2   ar
     7     2     3   ar
     8     3    15    1
     9    15    16    2
    10    16    17    1
    11    17    18    2
    12    18    19    1
    13    19    20    2
    14    20    21    1
    15    21    22    2
    16    22    23    1
    17     3     4   ar
    18     4     5   ar
    19     5     6   ar
    20     6     7    1
    21     7     8    1
    22     9     8    1
    23     9    10    1
    24    10    11    1
    25    11    12    1
    26    12    13    1
    27    13    14    1
    28    24    25    1
    29    25    26    1
    30    26    27    1
    31    27    28    1
    32    28    29    1
    33    29    24    1
    34     6     1   ar
    35    14     9    1
    36    23    15    1
    37    14     5    1
    38    23    19    1
@<TRIPOS>MOLECULE
*****
 33 38 0 0 0
SMALL
GASTEIGER

@<TRIPOS>ATOM
      1 C         139.4216  142.6318  160.6882 C.ar    1  UNL1        0.1170
      2 N         138.7764  143.1969  159.4576 N.ar    1  UNL1       -0.2264
      3 C         139.0028  142.5453  158.1255 C.ar    1  UNL1        0.1602
      4 N         139.8744  141.3287  158.0242 N.ar    1  UNL1       -0.2091
      5 C         140.5196  140.7637  159.2548 C.ar    1  UNL1        0.1690
      6 C         140.2932  141.4152  160.5868 C.ar    1  UNL1        0.1850
      7 O         140.9384  140.8501  161.8174 O.3     1  UNL1       -0.4695
      8 C         141.8099  139.6335  161.7160 C.3     1  UNL1        0.2277
      9 C         142.0363  138.9820  160.3840 C.3     1  UNL1        0.1477
     10 C         142.9079  137.7654  160.2826 C.3     1  UNL1        0.1657
     11 O         143.1342  137.1139  158.9506 O.3     1  UNL1       -0.3501
     12 C         142.4891  137.6790  157.7200 C.3     1  UNL1        0.1636
     13 C         141.6175  138.8955  157.8213 C.3     1  UNL1        0.1244
     14 N         141.3911  139.5470  159.1533 N.pl3   1  UNL1       -0.2840
     15 C         138.3576  143.1104  156.8949 C.2     1  UNL1        0.0230
     16 C         138.8919  144.3694  156.2787 C.2     1  UNL1       -0.0005
     17 C         138.2467  144.9344  155.0481 C.2     1  UNL1        0.0010
     18 C         137.0673  144.2405  154.4337 C.2     1  UNL1        0.0153
     19 C         136.5331  142.9816  155.0498 C.2     1  UNL1        0.0669
     20 N         135.3927  142.0839  154.6705 N.2     1  UNL1       -0.2478
     21 C         135.3332  140.9641  155.6667 C.2     1  UNL1        0.0946
     22 C         136.4367  141.1696  156.6617 C.2     1  UNL1        0.0046
     23 C         137.1782  142.4165  156.2805 C.3     1  UNL1        0.0888
     24 C         139.1952  143.2833  162.0202 C.3     1  UNL1        0.1533
     25 C         138.2429  142.1295  162.1294 C.3     1  UNL1        0.0599
     26 C         137.4222  141.9494  163.3719 C.3     1  UNL1        0.1443
     27 O         137.5539  142.9231  164.5055 O.3     1  UNL1       -0.3536
     28 C         138.5063  144.0768  164.3962 C.3     1  UNL1        0.1443
     29 C         139.3269  144.2569  163.1537 C.3     1  UNL1        0.0599
     30 C         141.2571  145.1383  160.8766 C.3     1  UNL1        0.1764
     31 S         140.2262  144.2107  161.4484 S.O2    1  UNL1       -0.0062
     32 O         141.1651  143.6602  161.5540 O.2     1  UNL1       -0.1727
     33 O         139.1559  145.2205  161.1565 O.2     1  UNL1       -0.1727
@<TRIPOS>BOND
     1    30    31    1
     2    31    32    2
     3    31    33    2
     4    31    24    1
     5    24     1    1
     6     1     2   ar
     7     2     3   ar
     8     3    15    1
     9    15    16    2
    10    16    17    1
    11    17    18    2
    12    18    19    1
    13    19    20    2
    14    20    21    1
    15    21    22    2
    16    22    23    1
    17     3     4   ar
    18     4     5   ar
    19     5     6   ar
    20     6     7    1
    21     7     8    1
    22     9     8    1
    23     9    10    1
    24    10    11    1
    25    11    12    1
    26    12    13    1
    27    13    14    1
    28    24    25    1
    29    25    26    1
    30    26    27    1
    31    27    28    1
    32    28    29    1
    33    29    24    1
    34     6     1   ar
    35    14     9    1
    36    23    15    1
    37    14     5    1
    38    23    19    1
@<TRIPOS>MOLECULE
*****
 33 38 0 0 0
SMALL
GASTEIGER

@<TRIPOS>ATOM
      1 C         143.0538  140.6782  162.1699 C.ar    1  UNL1        0.1170
      2 N         143.5037  140.1198  160.8524 N.ar    1  UNL1       -0.2264
      3 C         143.1516  140.8282  159.5780 C.ar    1  UNL1        0.1602
      4 N         142.3495  142.0950  159.6211 N.ar    1  UNL1       -0.2091
      5 C         141.8995  142.6534  160.9385 C.ar    1  UNL1        0.1690
      6 C         142.2516  141.9450  162.2129 C.ar    1  UNL1        0.1850
      7 O         141.8017  142.5034  163.5304 O.3     1  UNL1       -0.4695
      8 C         140.9996  143.7702  163.5735 C.3     1  UNL1        0.2277
      9 C         140.6474  144.4786  162.2990 C.3     1  UNL1        0.1477
     10 C         139.8453  145.7454  162.3421 C.3     1  UNL1        0.1657
     11 O         139.4932  146.4538  161.0677 O.3     1  UNL1       -0.3501
     12 C         139.9431  145.8954  159.7502 C.3     1  UNL1        0.1636
     13 C         140.7452  144.6286  159.7072 C.3     1  UNL1        0.1244
     14 N         141.0974  143.9202  160.9816 N.pl3   1  UNL1       -0.2840
     15 C         143.6015  140.2699  158.2605 C.2     1  UNL1        0.0230
     16 C         142.9549  139.0334  157.7098 C.2     1  UNL1       -0.0005
     17 C         143.4049  138.4750  156.3924 C.2     1  UNL1        0.0010
     18 C         144.5014  139.1531  155.6255 C.2     1  UNL1        0.0153
     19 C         145.1479  140.3895  156.1762 C.2     1  UNL1        0.0669
     20 N         146.2440  141.2682  155.6504 N.2     1  UNL1       -0.2478
     21 C         146.4715  142.3697  156.6429 C.2     1  UNL1        0.0946
     22 C         145.5160  142.1717  157.7821 C.2     1  UNL1        0.0046
     23 C         144.6979  140.9479  157.4937 C.3     1  UNL1        0.0888
     24 C         143.4059  139.9698  163.4443 C.3     1  UNL1        0.1533
     25 C         142.1038  139.2976  163.1239 C.3     1  UNL1        0.0599
     26 C         141.5635  138.2360  164.0355 C.3     1  UNL1        0.1443
     27 O         142.3255  137.8464  165.2676 O.3     1  UNL1       -0.3536
     28 C         143.6276  138.5186  165.5878 C.3     1  UNL1        0.1443
     29 C         144.1678  139.5803  164.6763 C.3     1  UNL1        0.0599
     30 C         145.7656  141.8062  163.1999 C.3     1  UNL1        0.1764
     31 S         144.5857  140.8880  163.3221 S.O2    1  UNL1       -0.0062
     32 O         145.0825  140.5599  162.4047 O.2     1  UNL1       -0.1727
     33 O         144.1778  141.5808  164.5884 O.2     1  UNL1       -0.1727
@<TRIPOS>BOND
     1    30    31    1
     2    31    32    2
     3    31    33    2
     4    31    24    1
     5    24     1    1
     6     1     2   ar
     7     2     3   ar
     8     3    15    1
     9    15    16    2
    10    16    17    1
    11    17    18    2
    12    18    19    1
    13    19    20    2
    14    20    21    1
    15    21    22    2
    16    22    23    1
    17     3     4   ar
    18     4     5   ar
    19     5     6   ar
    20     6     7    1
    21     7     8    1
    22     9     8    1
    23     9    10    1
    24    10    11    1
    25    11    12    1
    26    12    13    1
    27    13    14    1
    28    24    25    1
    29    25    26    1
    30    26    27    1
    31    27    28    1
    32    28    29    1
    33    29    24    1
    34     6     1   ar
    35    14     9    1
    36    23    15    1
    37    14     5    1
    38    23    19    1
@<TRIPOS>MOLECULE
*****
 33 38 0 0 0
SMALL
GASTEIGER

@<TRIPOS>ATOM
      1 C         142.1142  141.6857  163.5174 C.ar    1  UNL1        0.1170
      2 N         142.1899  141.0214  162.1746 N.ar    1  UNL1       -0.2264
      3 C         141.3832  139.7863  161.9024 C.ar    1  UNL1        0.1602
      4 N         140.5010  139.2157  162.9729 N.ar    1  UNL1       -0.2091
      5 C         140.4254  139.8800  164.3156 C.ar    1  UNL1        0.1690
      6 C         141.2319  141.1150  164.5879 C.ar    1  UNL1        0.1850
      7 O         141.1563  141.7793  165.9306 O.3     1  UNL1       -0.4695
      8 C         140.2741  141.2086  167.0011 C.3     1  UNL1        0.2277
      9 C         139.4674  139.9736  166.7289 C.3     1  UNL1        0.1477
     10 C         138.5852  139.4029  167.7993 C.3     1  UNL1        0.1657
     11 O         137.7786  138.1679  167.5271 O.3     1  UNL1       -0.3501
     12 C         137.8542  137.5036  166.1843 C.3     1  UNL1        0.1636
     13 C         138.7365  138.0743  165.1139 C.3     1  UNL1        0.1244
     14 N         139.5431  139.3092  165.3861 N.pl3   1  UNL1       -0.2840
     15 C         141.4589  139.1220  160.5597 C.2     1  UNL1        0.0230
     16 C         142.6140  138.2229  160.2318 C.2     1  UNL1       -0.0005
     17 C         142.6896  137.5586  158.8890 C.2     1  UNL1        0.0010
     18 C         141.6102  137.7933  157.8742 C.2     1  UNL1        0.0153
     19 C         140.4552  138.6924  158.2021 C.2     1  UNL1        0.0669
     20 N         139.2517  139.1097  157.4101 N.2     1  UNL1       -0.2478
     21 C         138.4322  140.0319  158.2633 C.2     1  UNL1        0.0946
     22 C         139.1292  140.1846  159.5826 C.2     1  UNL1        0.0046
     23 C         140.3795  139.3567  159.5449 C.3     1  UNL1        0.0888
     24 C         142.9208  142.9207  163.7897 C.3     1  UNL1        0.1533
     25 C         141.5654  143.5327  163.5941 C.3     1  UNL1        0.0599
     26 C         141.3900  145.0182  163.7059 C.3     1  UNL1        0.1443
     27 O         142.5701  145.8918  164.0133 O.3     1  UNL1       -0.3536
     28 C         143.9255  145.2797  164.2088 C.3     1  UNL1        0.1443
     29 C         144.1009  143.7942  164.0970 C.3     1  UNL1        0.0599
     30 C         145.0714  140.8388  163.9916 C.3     1  UNL1        0.1764
     31 S         143.9961  141.8798  163.8906 S.O2    1  UNL1       -0.0062
     32 O         143.8479  141.4415  164.8815 O.2     1  UNL1       -0.1727
     33 O         144.4738  142.2398  162.5150 O.2     1  UNL1       -0.1727
@<TRIPOS>BOND
     1    30    31    1
     2    31    32    2
     3    31    33    2
     4    31    24    1
     5    24     1    1
     6     1     2   ar
     7     2     3   ar
     8     3    15    1
     9    15    16    2
    10    16    17    1
    11    17    18    2
    12    18    19    1
    13    19    20    2
    14    20    21    1
    15    21    22    2
    16    22    23    1
    17     3     4   ar
    18     4     5   ar
    19     5     6   ar
    20     6     7    1
    21     7     8    1
    22     9     8    1
    23     9    10    1
    24    10    11    1
    25    11    12    1
    26    12    13    1
    27    13    14    1
    28    24    25    1
    29    25    26    1
    30    26    27    1
    31    27    28    1
    32    28    29    1
    33    29    24    1
    34     6     1   ar
    35    14     9    1
    36    23    15    1
    37    14     5    1
    38    23    19    1
