@<TRIPOS>MOLECULE
*****
 34 38 0 0 0
SMALL
GASTEIGER

@<TRIPOS>ATOM
      1 C         142.9827  139.2192  157.9309 C.2     1  UNL1        0.3045
      2 O         143.0762  140.4966  157.1503 O.2     1  UNL1       -0.2647
      3 N         143.3287  139.2050  159.3904 N.am    1  UNL1       -0.2720
      4 C         143.2352  137.9276  160.1710 C.3     1  UNL1        0.0976
      5 C         143.5812  137.9134  161.6304 C.3     1  UNL1        0.0651
      6 C         144.0207  139.1767  162.3093 C.3     1  UNL1        0.1693
      7 C         144.1142  140.4542  161.5287 C.3     1  UNL1        0.0651
      8 C         143.7682  140.4683  160.0692 C.3     1  UNL1        0.0976
      9 C         142.5545  135.7253  156.2954 C.ar    1  UNL1        0.2501
     10 N         141.1795  136.2983  156.1193 N.ar    1  UNL1       -0.1068
     11 N         141.1725  137.6769  156.7105 N.ar    1  UNL1       -0.1021
     12 C         142.5432  137.9559  157.2520 C.ar    1  UNL1        0.3042
     13 O         143.3973  136.7498  156.9955 O.2     1  UNL1       -0.4122
     14 C         143.9125  131.6488  154.9582 C.ar    1  UNL1        0.1387
     15 C         142.8856  132.3963  154.1604 C.ar    1  UNL1        0.0371
     16 C         142.4329  133.7552  154.6061 C.ar    1  UNL1        0.0078
     17 C         143.0071  134.3665  155.8496 C.ar    1  UNL1        0.0553
     18 C         144.0341  133.6190  156.6475 C.ar    1  UNL1        0.0078
     19 C         144.4868  132.2602  156.2017 C.ar    1  UNL1        0.0371
     20 C         144.8281  129.2843  155.5245 C.3     1  UNL1        0.2525
     21 O         144.3652  130.2900  154.5125 O.3     1  UNL1       -0.4714
     22 O         144.3667  139.1626  163.7688 O.3     1  UNL1       -0.4791
     23 C         143.2968  139.3889  164.7955 C.ar    1  UNL1        0.1384
     24 C         141.9925  140.0119  164.3946 C.ar    1  UNL1        0.0366
     25 C         140.9226  140.2382  165.4213 C.ar    1  UNL1        0.0002
     26 C         141.1569  139.8415  166.8488 C.ar    1  UNL1       -0.0059
     27 C         142.4612  139.2185  167.2496 C.ar    1  UNL1        0.0002
     28 C         143.5311  138.9922  166.2230 C.ar    1  UNL1        0.0366
     29 C         140.0869  140.0679  167.8755 C.3     1  UNL1        0.0991
     30 N         140.1113  141.3044  168.7241 N.3     1  UNL1       -0.2690
     31 C         140.6312  142.6487  168.3088 C.3     1  UNL1        0.0724
     32 C         140.4612  143.5889  169.4651 C.3     1  UNL1        0.0188
     33 C         139.8362  142.8257  170.5952 C.3     1  UNL1        0.0188
     34 C         139.6199  141.4138  170.1371 C.3     1  UNL1        0.0724
@<TRIPOS>BOND
     1    20    21    1
     2    21    14    1
     3    14    15   ar
     4    15    16   ar
     5    16    17   ar
     6    17     9    1
     7     9    10   ar
     8    10    11   ar
     9    11    12   ar
    10    12     1    1
    11     1     2    2
    12     1     3   am
    13     3     4    1
    14     4     5    1
    15     5     6    1
    16     6    22    1
    17    22    23    1
    18    23    24   ar
    19    24    25   ar
    20    25    26   ar
    21    26    29    1
    22    29    30    1
    23    30    31    1
    24    31    32    1
    25    32    33    1
    26    33    34    1
    27    26    27   ar
    28    27    28   ar
    29     6     7    1
    30     7     8    1
    31    12    13   ar
    32    17    18   ar
    33    18    19   ar
    34    19    14   ar
    35    13     9   ar
    36     8     3    1
    37    28    23   ar
    38    34    30    1
@<TRIPOS>MOLECULE
*****
 34 38 0 0 0
SMALL
GASTEIGER

@<TRIPOS>ATOM
      1 C         142.0167  139.4361  158.7408 C.2     1  UNL1        0.3045
      2 O         143.0442  140.4837  158.4297 O.2     1  UNL1       -0.2647
      3 N         141.0486  139.6462  159.8671 N.am    1  UNL1       -0.2720
      4 C         140.0211  138.5986  160.1782 C.3     1  UNL1        0.0976
      5 C         139.0530  138.8087  161.3045 C.3     1  UNL1        0.0651
      6 C         139.1123  140.0664  162.1197 C.3     1  UNL1        0.1693
      7 C         140.1398  141.1141  161.8086 C.3     1  UNL1        0.0651
      8 C         141.1079  140.9039  160.6822 C.3     1  UNL1        0.0976
      9 C         142.4775  135.9867  157.0219 C.ar    1  UNL1        0.2501
     10 N         141.2548  136.4991  156.3203 N.ar    1  UNL1       -0.1068
     11 N         140.9334  137.8537  156.8787 N.ar    1  UNL1       -0.1021
     12 C         141.9574  138.1784  157.9256 C.ar    1  UNL1        0.3042
     13 O         142.9117  137.0245  158.0141 O.2     1  UNL1       -0.4122
     14 C         144.4897  132.0305  156.2807 C.ar    1  UNL1        0.1387
     15 C         144.5828  132.6780  157.6305 C.ar    1  UNL1        0.0371
     16 C         143.9120  133.9967  157.8776 C.ar    1  UNL1        0.0078
     17 C         143.1483  134.6679  156.7749 C.ar    1  UNL1        0.0553
     18 C         143.0553  134.0204  155.4251 C.ar    1  UNL1        0.0078
     19 C         143.7260  132.7017  155.1780 C.ar    1  UNL1        0.0371
     20 C         144.6264  129.7838  154.9831 C.3     1  UNL1        0.2525
     21 O         145.1605  130.7117  156.0337 O.3     1  UNL1       -0.4714
     22 O         138.1442  140.2765  163.2460 O.3     1  UNL1       -0.4791
     23 C         138.6332  140.2826  164.6640 C.ar    1  UNL1        0.1384
     24 C         139.4930  141.4089  165.1561 C.ar    1  UNL1        0.0366
     25 C         139.9820  141.4150  166.5741 C.ar    1  UNL1        0.0002
     26 C         139.6112  140.2946  167.5001 C.ar    1  UNL1       -0.0059
     27 C         138.7514  139.1683  167.0080 C.ar    1  UNL1        0.0002
     28 C         138.2624  139.1622  165.5900 C.ar    1  UNL1        0.0366
     29 C         140.1002  140.3007  168.9182 C.3     1  UNL1        0.0991
     30 N         141.2467  141.1839  169.3124 N.3     1  UNL1       -0.2690
     31 C         141.1396  142.5190  169.9876 C.3     1  UNL1        0.0724
     32 C         142.5283  143.0472  170.1932 C.3     1  UNL1        0.0188
     33 C         143.4938  142.0386  169.6450 C.3     1  UNL1        0.0188
     34 C         142.7017  140.8870  169.1007 C.3     1  UNL1        0.0724
@<TRIPOS>BOND
     1    20    21    1
     2    21    14    1
     3    14    15   ar
     4    15    16   ar
     5    16    17   ar
     6    17     9    1
     7     9    10   ar
     8    10    11   ar
     9    11    12   ar
    10    12     1    1
    11     1     2    2
    12     1     3   am
    13     3     4    1
    14     4     5    1
    15     5     6    1
    16     6    22    1
    17    22    23    1
    18    23    24   ar
    19    24    25   ar
    20    25    26   ar
    21    26    29    1
    22    29    30    1
    23    30    31    1
    24    31    32    1
    25    32    33    1
    26    33    34    1
    27    26    27   ar
    28    27    28   ar
    29     6     7    1
    30     7     8    1
    31    12    13   ar
    32    17    18   ar
    33    18    19   ar
    34    19    14   ar
    35    13     9   ar
    36     8     3    1
    37    28    23   ar
    38    34    30    1
@<TRIPOS>MOLECULE
*****
 34 38 0 0 0
SMALL
GASTEIGER

@<TRIPOS>ATOM
      1 C         138.7105  139.0224  161.3461 C.2     1  UNL1        0.3045
      2 O         137.3766  139.4634  160.8206 O.2     1  UNL1       -0.2647
      3 N         139.8190  138.6879  160.3925 N.am    1  UNL1       -0.2720
      4 C         141.1529  138.2469  160.9180 C.3     1  UNL1        0.0976
      5 C         142.2614  137.9124  159.9644 C.3     1  UNL1        0.0651
      6 C         142.0360  138.0189  158.4853 C.3     1  UNL1        0.1693
      7 C         140.7021  138.4599  157.9598 C.3     1  UNL1        0.0651
      8 C         139.5936  138.7944  158.9134 C.3     1  UNL1        0.0976
      9 C         139.4136  139.4898  165.1346 C.ar    1  UNL1        0.2501
     10 N         139.1520  138.0143  165.0682 N.ar    1  UNL1       -0.1068
     11 N         138.8568  137.6596  163.6409 N.ar    1  UNL1       -0.1021
     12 C         138.9359  138.9159  162.8252 C.ar    1  UNL1        0.3042
     13 O         139.2800  140.0470  163.7483 O.2     1  UNL1       -0.4122
     14 C         140.4218  141.8333  168.8416 C.ar    1  UNL1        0.1387
     15 C         139.6571  140.5476  168.9519 C.ar    1  UNL1        0.0371
     16 C         139.3210  139.7665  167.7162 C.ar    1  UNL1        0.0078
     17 C         139.7497  140.2710  166.3702 C.ar    1  UNL1        0.0553
     18 C         140.5144  141.5566  166.2599 C.ar    1  UNL1        0.0078
     19 C         140.8505  142.3378  167.4956 C.ar    1  UNL1        0.0371
     20 C         142.1411  143.1638  170.2642 C.3     1  UNL1        0.2525
     21 O         140.7579  142.6144  170.0772 O.3     1  UNL1       -0.4714
     22 O         143.1445  137.6844  157.5317 O.3     1  UNL1       -0.4791
     23 C         143.1066  136.3995  156.7586 C.ar    1  UNL1        0.1384
     24 C         143.2657  135.0899  157.4724 C.ar    1  UNL1        0.0366
     25 C         143.2278  133.8050  156.6993 C.ar    1  UNL1        0.0002
     26 C         143.0308  133.8298  155.2125 C.ar    1  UNL1       -0.0059
     27 C         142.8717  135.1395  154.4987 C.ar    1  UNL1        0.0002
     28 C         142.9096  136.4244  155.2718 C.ar    1  UNL1        0.0366
     29 C         142.9929  132.5449  154.4394 C.3     1  UNL1        0.0991
     30 N         143.3118  131.2485  155.1231 N.3     1  UNL1       -0.2690
     31 C         144.6630  130.6017  155.2008 C.3     1  UNL1        0.0724
     32 C         144.5217  129.3247  155.9749 C.3     1  UNL1        0.0188
     33 C         143.0833  129.1822  156.3758 C.3     1  UNL1        0.0188
     34 C         142.3356  130.3712  155.8493 C.3     1  UNL1        0.0724
@<TRIPOS>BOND
     1    20    21    1
     2    21    14    1
     3    14    15   ar
     4    15    16   ar
     5    16    17   ar
     6    17     9    1
     7     9    10   ar
     8    10    11   ar
     9    11    12   ar
    10    12     1    1
    11     1     2    2
    12     1     3   am
    13     3     4    1
    14     4     5    1
    15     5     6    1
    16     6    22    1
    17    22    23    1
    18    23    24   ar
    19    24    25   ar
    20    25    26   ar
    21    26    29    1
    22    29    30    1
    23    30    31    1
    24    31    32    1
    25    32    33    1
    26    33    34    1
    27    26    27   ar
    28    27    28   ar
    29     6     7    1
    30     7     8    1
    31    12    13   ar
    32    17    18   ar
    33    18    19   ar
    34    19    14   ar
    35    13     9   ar
    36     8     3    1
    37    28    23   ar
    38    34    30    1
@<TRIPOS>MOLECULE
*****
 34 38 0 0 0
SMALL
GASTEIGER

@<TRIPOS>ATOM
      1 C         139.4112  139.5254  158.5992 C.2     1  UNL1        0.3045
      2 O         138.2625  140.2227  157.9327 O.2     1  UNL1       -0.2647
      3 N         139.2569  138.9884  159.9913 N.am    1  UNL1       -0.2720
      4 C         140.4056  138.2910  160.6577 C.3     1  UNL1        0.0976
      5 C         140.2513  137.7541  162.0497 C.3     1  UNL1        0.0651
      6 C         138.9483  137.9145  162.7753 C.3     1  UNL1        0.1693
      7 C         137.7997  138.6119  162.1089 C.3     1  UNL1        0.0651
      8 C         137.9540  139.1488  160.7168 C.3     1  UNL1        0.0976
      9 C         142.9217  139.8088  156.9679 C.ar    1  UNL1        0.2501
     10 N         142.5167  138.4275  156.5459 N.ar    1  UNL1       -0.1068
     11 N         141.1523  138.1532  157.1056 N.ar    1  UNL1       -0.1021
     12 C         140.7141  139.3649  157.8735 C.ar    1  UNL1        0.3042
     13 O         141.8077  140.3881  157.7884 O.2     1  UNL1       -0.4122
     14 C         146.7983  141.8552  155.9509 C.ar    1  UNL1        0.1387
     15 C         146.2617  140.7777  155.0559 C.ar    1  UNL1        0.0371
     16 C         144.9695  140.0956  155.3949 C.ar    1  UNL1        0.0078
     17 C         144.2139  140.4909  156.6289 C.ar    1  UNL1        0.0553
     18 C         144.7506  141.5684  157.5238 C.ar    1  UNL1        0.0078
     19 C         146.0428  142.2505  157.1848 C.ar    1  UNL1        0.0371
     20 C         149.3317  141.7249  155.3898 C.3     1  UNL1        0.2525
     21 O         148.0905  142.5373  155.6118 O.3     1  UNL1       -0.4714
     22 O         138.7941  137.3775  164.1674 O.3     1  UNL1       -0.4791
     23 C         139.0524  138.2670  165.3473 C.ar    1  UNL1        0.1384
     24 C         138.0113  138.4151  166.4170 C.ar    1  UNL1        0.0366
     25 C         138.2696  139.3045  167.5969 C.ar    1  UNL1        0.0002
     26 C         139.5689  140.0459  167.7070 C.ar    1  UNL1       -0.0059
     27 C         140.6100  139.8978  166.6373 C.ar    1  UNL1        0.0002
     28 C         140.3517  139.0084  165.4575 C.ar    1  UNL1        0.0366
     29 C         139.8272  140.9354  168.8870 C.3     1  UNL1        0.0991
     30 N         141.2356  141.2676  169.2818 N.3     1  UNL1       -0.2690
     31 C         142.1537  140.3979  170.0885 C.3     1  UNL1        0.0724
     32 C         143.4587  141.1208  170.2444 C.3     1  UNL1        0.0188
     33 C         143.3473  142.4373  169.5342 C.3     1  UNL1        0.0188
     34 C         141.9733  142.5280  168.9392 C.3     1  UNL1        0.0724
@<TRIPOS>BOND
     1    20    21    1
     2    21    14    1
     3    14    15   ar
     4    15    16   ar
     5    16    17   ar
     6    17     9    1
     7     9    10   ar
     8    10    11   ar
     9    11    12   ar
    10    12     1    1
    11     1     2    2
    12     1     3   am
    13     3     4    1
    14     4     5    1
    15     5     6    1
    16     6    22    1
    17    22    23    1
    18    23    24   ar
    19    24    25   ar
    20    25    26   ar
    21    26    29    1
    22    29    30    1
    23    30    31    1
    24    31    32    1
    25    32    33    1
    26    33    34    1
    27    26    27   ar
    28    27    28   ar
    29     6     7    1
    30     7     8    1
    31    12    13   ar
    32    17    18   ar
    33    18    19   ar
    34    19    14   ar
    35    13     9   ar
    36     8     3    1
    37    28    23   ar
    38    34    30    1
@<TRIPOS>MOLECULE
*****
 34 38 0 0 0
SMALL
GASTEIGER

@<TRIPOS>ATOM
      1 C         139.8951  140.5444  157.2986 C.2     1  UNL1        0.3045
      2 O         140.4871  141.6598  156.4889 O.2     1  UNL1       -0.2647
      3 N         139.2437  140.8388  158.6173 N.am    1  UNL1       -0.2720
      4 C         138.6517  139.7235  159.4270 C.3     1  UNL1        0.0976
      5 C         138.0004  140.0179  160.7456 C.3     1  UNL1        0.0651
      6 C         137.9409  141.4276  161.2547 C.3     1  UNL1        0.1693
      7 C         138.5329  142.5429  160.4450 C.3     1  UNL1        0.0651
      8 C         139.1843  142.2485  159.1263 C.3     1  UNL1        0.0976
      9 C         140.7693  136.9256  156.2008 C.ar    1  UNL1        0.2501
     10 N         139.3229  137.0051  155.8116 N.ar    1  UNL1       -0.1068
     11 N         138.8193  138.3704  156.1754 N.ar    1  UNL1       -0.1021
     12 C         139.9546  139.1347  156.7895 C.ar    1  UNL1        0.3042
     13 O         141.1597  138.2418  156.8052 O.2     1  UNL1       -0.4122
     14 C         143.4643  133.3639  155.6517 C.ar    1  UNL1        0.1387
     15 C         142.2865  133.5603  154.7439 C.ar    1  UNL1        0.0371
     16 C         141.3882  134.7475  154.9269 C.ar    1  UNL1        0.0078
     17 C         141.6677  135.7384  156.0178 C.ar    1  UNL1        0.0553
     18 C         142.8454  135.5420  156.9256 C.ar    1  UNL1        0.0078
     19 C         143.7438  134.3548  156.7426 C.ar    1  UNL1        0.0371
     20 C         144.9566  131.4941  156.6650 C.3     1  UNL1        0.2525
     21 O         144.3626  132.1767  155.4687 O.3     1  UNL1       -0.4714
     22 O         137.2895  141.7220  162.5734 O.3     1  UNL1       -0.4791
     23 C         138.1326  141.9316  163.7962 C.ar    1  UNL1        0.1384
     24 C         138.6095  143.3087  164.1513 C.ar    1  UNL1        0.0366
     25 C         139.4527  143.5183  165.3740 C.ar    1  UNL1        0.0002
     26 C         139.8188  142.3508  166.2418 C.ar    1  UNL1       -0.0059
     27 C         139.3419  140.9737  165.8867 C.ar    1  UNL1        0.0002
     28 C         138.4988  140.7641  164.6639 C.ar    1  UNL1        0.0366
     29 C         140.6620  142.5605  167.4646 C.3     1  UNL1        0.0991
     30 N         140.7540  141.4846  168.5057 N.3     1  UNL1       -0.2690
     31 C         141.8576  140.4773  168.6376 C.3     1  UNL1        0.0724
     32 C         141.5441  139.5974  169.8112 C.3     1  UNL1        0.0188
     33 C         140.2468  140.0607  170.4047 C.3     1  UNL1        0.0188
     34 C         139.7584  141.2271  169.5978 C.3     1  UNL1        0.0724
@<TRIPOS>BOND
     1    20    21    1
     2    21    14    1
     3    14    15   ar
     4    15    16   ar
     5    16    17   ar
     6    17     9    1
     7     9    10   ar
     8    10    11   ar
     9    11    12   ar
    10    12     1    1
    11     1     2    2
    12     1     3   am
    13     3     4    1
    14     4     5    1
    15     5     6    1
    16     6    22    1
    17    22    23    1
    18    23    24   ar
    19    24    25   ar
    20    25    26   ar
    21    26    29    1
    22    29    30    1
    23    30    31    1
    24    31    32    1
    25    32    33    1
    26    33    34    1
    27    26    27   ar
    28    27    28   ar
    29     6     7    1
    30     7     8    1
    31    12    13   ar
    32    17    18   ar
    33    18    19   ar
    34    19    14   ar
    35    13     9   ar
    36     8     3    1
    37    28    23   ar
    38    34    30    1
@<TRIPOS>MOLECULE
*****
 34 38 0 0 0
SMALL
GASTEIGER

@<TRIPOS>ATOM
      1 C         139.7339  139.1592  157.8183 C.2     1  UNL1        0.3045
      2 O         139.0482  139.9706  156.7593 O.2     1  UNL1       -0.2647
      3 N         139.2460  139.2106  159.2359 N.am    1  UNL1       -0.2720
      4 C         139.9317  138.3991  160.2949 C.3     1  UNL1        0.0976
      5 C         139.4439  138.4505  161.7123 C.3     1  UNL1        0.0651
      6 C         138.2704  139.3133  162.0709 C.3     1  UNL1        0.1693
      7 C         137.5848  140.1247  161.0119 C.3     1  UNL1        0.0651
      8 C         138.0726  140.0734  159.5943 C.3     1  UNL1        0.0976
      9 C         142.2459  136.4313  156.6721 C.ar    1  UNL1        0.2501
     10 N         143.1801  137.5059  157.1438 N.ar    1  UNL1       -0.1068
     11 N         142.3529  138.6585  157.6305 N.ar    1  UNL1       -0.1021
     12 C         140.9073  138.2964  157.4598 C.ar    1  UNL1        0.3042
     13 O         140.8412  136.9198  156.8674 O.2     1  UNL1       -0.4122
     14 C         143.4464  132.4423  154.9702 C.ar    1  UNL1        0.1387
     15 C         144.1939  133.0152  156.1377 C.ar    1  UNL1        0.0371
     16 C         143.7937  134.3448  156.7050 C.ar    1  UNL1        0.0078
     17 C         142.6461  135.1016  156.1048 C.ar    1  UNL1        0.0553
     18 C         141.8986  134.5287  154.9373 C.ar    1  UNL1        0.0078
     19 C         142.2988  133.1990  154.3700 C.ar    1  UNL1        0.0371
     20 C         144.6689  130.1638  155.2236 C.3     1  UNL1        0.2525
     21 O         143.8466  131.1126  154.4029 O.3     1  UNL1       -0.4714
     22 O         137.7826  139.3647  163.4884 O.3     1  UNL1       -0.4791
     23 C         138.5445  140.1482  164.5158 C.ar    1  UNL1        0.1384
     24 C         138.9457  139.4999  165.8076 C.ar    1  UNL1        0.0366
     25 C         139.7076  140.2834  166.8350 C.ar    1  UNL1        0.0002
     26 C         140.0683  141.7152  166.5707 C.ar    1  UNL1       -0.0059
     27 C         139.6671  142.3635  165.2789 C.ar    1  UNL1        0.0002
     28 C         138.9052  141.5800  164.2515 C.ar    1  UNL1        0.0366
     29 C         140.8302  142.4987  167.5982 C.3     1  UNL1        0.0991
     30 N         141.4094  141.8031  168.7942 N.3     1  UNL1       -0.2690
     31 C         140.7632  141.6818  170.1424 C.3     1  UNL1        0.0724
     32 C         141.6910  140.9103  171.0333 C.3     1  UNL1        0.0188
     33 C         142.9107  140.5547  170.2359 C.3     1  UNL1        0.0188
     34 C         142.7366  141.1065  168.8519 C.3     1  UNL1        0.0724
@<TRIPOS>BOND
     1    20    21    1
     2    21    14    1
     3    14    15   ar
     4    15    16   ar
     5    16    17   ar
     6    17     9    1
     7     9    10   ar
     8    10    11   ar
     9    11    12   ar
    10    12     1    1
    11     1     2    2
    12     1     3   am
    13     3     4    1
    14     4     5    1
    15     5     6    1
    16     6    22    1
    17    22    23    1
    18    23    24   ar
    19    24    25   ar
    20    25    26   ar
    21    26    29    1
    22    29    30    1
    23    30    31    1
    24    31    32    1
    25    32    33    1
    26    33    34    1
    27    26    27   ar
    28    27    28   ar
    29     6     7    1
    30     7     8    1
    31    12    13   ar
    32    17    18   ar
    33    18    19   ar
    34    19    14   ar
    35    13     9   ar
    36     8     3    1
    37    28    23   ar
    38    34    30    1
@<TRIPOS>MOLECULE
*****
 34 38 0 0 0
SMALL
GASTEIGER

@<TRIPOS>ATOM
      1 C         138.2306  143.3522  155.3814 C.2     1  UNL1        0.3045
      2 O         138.3620  144.0289  154.0492 O.2     1  UNL1       -0.2647
      3 N         139.0035  143.8625  156.5613 N.am    1  UNL1       -0.2720
      4 C         138.8721  143.1858  157.8935 C.3     1  UNL1        0.0976
      5 C         139.6450  143.6960  159.0734 C.3     1  UNL1        0.0651
      6 C         140.5494  144.8829  158.9211 C.3     1  UNL1        0.1693
      7 C         140.6809  145.5596  157.5889 C.3     1  UNL1        0.0651
      8 C         139.9079  145.0494  156.4090 C.3     1  UNL1        0.0976
      9 C         135.3452  140.7971  155.8415 C.ar    1  UNL1        0.2501
     10 N         136.5234  139.8805  155.6946 N.ar    1  UNL1       -0.1068
     11 N         137.7477  140.7260  155.5043 N.ar    1  UNL1       -0.1021
     12 C         137.3261  142.1653  155.5337 C.ar    1  UNL1        0.3042
     13 O         135.8413  142.2092  155.7421 O.2     1  UNL1       -0.4122
     14 C         131.0725  139.5328  156.4703 C.ar    1  UNL1        0.1387
     15 C         131.3779  140.8834  155.8938 C.ar    1  UNL1        0.0371
     16 C         132.8021  141.3049  155.6842 C.ar    1  UNL1        0.0078
     17 C         133.9210  140.3757  156.0511 C.ar    1  UNL1        0.0553
     18 C         133.6156  139.0250  156.6277 C.ar    1  UNL1        0.0078
     19 C         132.1913  138.6036  156.8373 C.ar    1  UNL1        0.0371
     20 C         129.3111  137.6579  156.8337 C.3     1  UNL1        0.2525
     21 O         129.6482  139.1114  156.6799 O.3     1  UNL1       -0.4714
     22 O         141.3224  145.3932  160.1010 O.3     1  UNL1       -0.4791
     23 C         141.0253  144.8704  161.4752 C.ar    1  UNL1        0.1384
     24 C         141.8537  143.7602  162.0506 C.ar    1  UNL1        0.0366
     25 C         141.5566  143.2374  163.4247 C.ar    1  UNL1        0.0002
     26 C         140.4310  143.8249  164.2235 C.ar    1  UNL1       -0.0059
     27 C         139.6026  144.9351  163.6482 C.ar    1  UNL1        0.0002
     28 C         139.8997  145.4579  162.2740 C.ar    1  UNL1        0.0366
     29 C         140.1339  143.3021  165.5978 C.3     1  UNL1        0.0991
     30 N         139.5650  141.9248  165.7696 N.3     1  UNL1       -0.2690
     31 C         138.5027  141.2970  164.9169 C.3     1  UNL1        0.0724
     32 C         138.2398  139.9178  165.4446 C.3     1  UNL1        0.0188
     33 C         139.1396  139.6931  166.6235 C.3     1  UNL1        0.0188
     34 C         139.9587  140.9336  166.8243 C.3     1  UNL1        0.0724
@<TRIPOS>BOND
     1    20    21    1
     2    21    14    1
     3    14    15   ar
     4    15    16   ar
     5    16    17   ar
     6    17     9    1
     7     9    10   ar
     8    10    11   ar
     9    11    12   ar
    10    12     1    1
    11     1     2    2
    12     1     3   am
    13     3     4    1
    14     4     5    1
    15     5     6    1
    16     6    22    1
    17    22    23    1
    18    23    24   ar
    19    24    25   ar
    20    25    26   ar
    21    26    29    1
    22    29    30    1
    23    30    31    1
    24    31    32    1
    25    32    33    1
    26    33    34    1
    27    26    27   ar
    28    27    28   ar
    29     6     7    1
    30     7     8    1
    31    12    13   ar
    32    17    18   ar
    33    18    19   ar
    34    19    14   ar
    35    13     9   ar
    36     8     3    1
    37    28    23   ar
    38    34    30    1
@<TRIPOS>MOLECULE
*****
 34 38 0 0 0
SMALL
GASTEIGER

@<TRIPOS>ATOM
      1 C         140.8326  144.1020  157.5636 C.2     1  UNL1        0.3045
      2 O         141.5028  142.9175  156.9329 O.2     1  UNL1       -0.2647
      3 N         140.9488  144.3306  159.0415 N.am    1  UNL1       -0.2720
      4 C         140.2786  145.5151  159.6722 C.3     1  UNL1        0.0976
      5 C         140.3948  145.7437  161.1500 C.3     1  UNL1        0.0651
      6 C         141.1813  144.7879  161.9973 C.3     1  UNL1        0.1693
      7 C         141.8515  143.6034  161.3666 C.3     1  UNL1        0.0651
      8 C         141.7353  143.3748  159.8887 C.3     1  UNL1        0.0976
      9 C         139.3069  147.0818  155.5992 C.ar    1  UNL1        0.2501
     10 N         138.3649  145.9758  155.2260 N.ar    1  UNL1       -0.1068
     11 N         138.8217  144.7249  155.9164 N.ar    1  UNL1       -0.1021
     12 C         140.0461  145.0578  156.7164 C.ar    1  UNL1        0.3042
     13 O         140.3460  146.5144  156.5204 O.2     1  UNL1       -0.4122
     14 C         139.0594  151.3520  154.2012 C.ar    1  UNL1        0.1387
     15 C         138.5156  150.9704  155.5461 C.ar    1  UNL1        0.0371
     16 C         138.5981  149.5470  156.0121 C.ar    1  UNL1        0.0078
     17 C         139.2244  148.5052  155.1332 C.ar    1  UNL1        0.0553
     18 C         139.7681  148.8868  153.7884 C.ar    1  UNL1        0.0078
     19 C         139.6856  150.3102  153.3224 C.ar    1  UNL1        0.0371
     20 C         138.3177  153.8101  154.5983 C.3     1  UNL1        0.2525
     21 O         138.9768  152.7753  153.7352 O.3     1  UNL1       -0.4714
     22 O         141.2975  145.0165  163.4752 O.3     1  UNL1       -0.4791
     23 C         141.6197  143.8709  164.3883 C.ar    1  UNL1        0.1384
     24 C         140.5160  143.0168  164.9381 C.ar    1  UNL1        0.0366
     25 C         140.8381  141.8712  165.8512 C.ar    1  UNL1        0.0002
     26 C         142.2640  141.5796  166.2145 C.ar    1  UNL1       -0.0059
     27 C         143.3677  142.4337  165.6646 C.ar    1  UNL1        0.0002
     28 C         143.0456  143.5793  164.7515 C.ar    1  UNL1        0.0366
     29 C         142.5861  140.4339  167.1276 C.3     1  UNL1        0.0991
     30 N         142.1024  140.4474  168.5473 N.3     1  UNL1       -0.2690
     31 C         140.7527  139.9982  169.0233 C.3     1  UNL1        0.0724
     32 C         140.6996  140.1857  170.5105 C.3     1  UNL1        0.0188
     33 C         142.0164  140.7508  170.9539 C.3     1  UNL1        0.0188
     34 C         142.8834  140.9125  169.7405 C.3     1  UNL1        0.0724
@<TRIPOS>BOND
     1    20    21    1
     2    21    14    1
     3    14    15   ar
     4    15    16   ar
     5    16    17   ar
     6    17     9    1
     7     9    10   ar
     8    10    11   ar
     9    11    12   ar
    10    12     1    1
    11     1     2    2
    12     1     3   am
    13     3     4    1
    14     4     5    1
    15     5     6    1
    16     6    22    1
    17    22    23    1
    18    23    24   ar
    19    24    25   ar
    20    25    26   ar
    21    26    29    1
    22    29    30    1
    23    30    31    1
    24    31    32    1
    25    32    33    1
    26    33    34    1
    27    26    27   ar
    28    27    28   ar
    29     6     7    1
    30     7     8    1
    31    12    13   ar
    32    17    18   ar
    33    18    19   ar
    34    19    14   ar
    35    13     9   ar
    36     8     3    1
    37    28    23   ar
    38    34    30    1
@<TRIPOS>MOLECULE
*****
 34 38 0 0 0
SMALL
GASTEIGER

@<TRIPOS>ATOM
      1 C         142.6585  140.6820  156.3177 C.2     1  UNL1        0.3045
      2 O         141.8125  141.3003  155.2445 O.2     1  UNL1       -0.2647
      3 N         142.9275  141.4342  157.5873 N.am    1  UNL1       -0.2720
      4 C         143.7735  140.8159  158.6606 C.3     1  UNL1        0.0976
      5 C         144.0424  141.5681  159.9301 C.3     1  UNL1        0.0651
      6 C         143.4653  142.9386  160.1265 C.3     1  UNL1        0.1693
      7 C         142.6193  143.5569  159.0532 C.3     1  UNL1        0.0651
      8 C         142.3504  142.8047  157.7836 C.3     1  UNL1        0.0976
      9 C         143.4580  136.8985  155.9839 C.ar    1  UNL1        0.2501
     10 N         144.7892  137.5062  155.6547 N.ar    1  UNL1       -0.1068
     11 N         144.6518  138.9975  155.7396 N.ar    1  UNL1       -0.1021
     12 C         143.2356  139.3115  156.1214 C.ar    1  UNL1        0.3042
     13 O         142.4978  138.0142  156.2723 O.2     1  UNL1       -0.4122
     14 C         142.5110  132.5005  156.0879 C.ar    1  UNL1        0.1387
     15 C         143.2875  133.1272  157.2078 C.ar    1  UNL1        0.0371
     16 C         143.6032  134.5932  157.1731 C.ar    1  UNL1        0.0078
     17 C         143.1423  135.4325  156.0186 C.ar    1  UNL1        0.0553
     18 C         142.3658  134.8058  154.8987 C.ar    1  UNL1        0.0078
     19 C         142.0501  133.3398  154.9333 C.ar    1  UNL1        0.0371
     20 C         141.7800  130.3268  154.8670 C.3     1  UNL1        0.2525
     21 O         142.1953  131.0345  156.1226 O.3     1  UNL1       -0.4714
     22 O         143.7342  143.6908  161.3961 O.3     1  UNL1       -0.4791
     23 C         143.4357  143.0557  162.7217 C.ar    1  UNL1        0.1384
     24 C         142.2014  142.2205  162.8922 C.ar    1  UNL1        0.0366
     25 C         141.9028  141.5854  164.2179 C.ar    1  UNL1        0.0002
     26 C         142.8385  141.7854  165.3731 C.ar    1  UNL1       -0.0059
     27 C         144.0728  142.6206  165.2026 C.ar    1  UNL1        0.0002
     28 C         144.3714  143.2557  163.8770 C.ar    1  UNL1        0.0366
     29 C         142.5399  141.1502  166.6988 C.3     1  UNL1        0.0991
     30 N         141.9890  141.9794  167.8207 N.3     1  UNL1       -0.2690
     31 C         142.7269  142.3851  169.0621 C.3     1  UNL1        0.0724
     32 C         141.7973  143.2050  169.9067 C.3     1  UNL1        0.0188
     33 C         140.4848  143.3061  169.1876 C.3     1  UNL1        0.0188
     34 C         140.6034  142.5487  167.8983 C.3     1  UNL1        0.0724
@<TRIPOS>BOND
     1    20    21    1
     2    21    14    1
     3    14    15   ar
     4    15    16   ar
     5    16    17   ar
     6    17     9    1
     7     9    10   ar
     8    10    11   ar
     9    11    12   ar
    10    12     1    1
    11     1     2    2
    12     1     3   am
    13     3     4    1
    14     4     5    1
    15     5     6    1
    16     6    22    1
    17    22    23    1
    18    23    24   ar
    19    24    25   ar
    20    25    26   ar
    21    26    29    1
    22    29    30    1
    23    30    31    1
    24    31    32    1
    25    32    33    1
    26    33    34    1
    27    26    27   ar
    28    27    28   ar
    29     6     7    1
    30     7     8    1
    31    12    13   ar
    32    17    18   ar
    33    18    19   ar
    34    19    14   ar
    35    13     9   ar
    36     8     3    1
    37    28    23   ar
    38    34    30    1
