@<TRIPOS>MOLECULE
*****
 34 39 0 0 0
SMALL
GASTEIGER

@<TRIPOS>ATOM
      1 C         139.4724  138.9004  161.6872 C.ar    1  UNL1        0.0713
      2 C         138.3844  139.4938  160.8423 C.ar    1  UNL1        0.0250
      3 C         138.8364  139.4584  159.4124 C.ar    1  UNL1        0.0804
      4 N         140.2038  138.8430  159.3737 N.ar    1  UNL1       -0.3009
      5 C         141.1418  138.5521  158.2399 C.ar    1  UNL1        0.1182
      6 C         142.4728  137.9164  158.5120 C.ar    1  UNL1        0.1647
      7 C         142.8659  137.5715  159.9178 C.ar    1  UNL1        0.0406
      8 C         141.9279  137.8624  161.0517 C.ar    1  UNL1        0.0208
      9 C         140.5969  138.4981  160.7796 C.ar    1  UNL1        0.0687
     10 N         138.7967  139.7875  164.0338 N.am    1  UNL1       -0.2644
     11 C         139.4414  138.7377  163.1780 C.2     1  UNL1        0.2520
     12 O         140.0551  137.5253  163.8131 O.2     1  UNL1       -0.2697
     13 H         138.3939  140.5833  163.6170 H       1  UNL1        0.1566
     14 C         139.3418  139.7868  167.8767 C.ar    1  UNL1        0.0537
     15 C         139.7568  140.1964  166.4947 C.ar    1  UNL1        0.0502
     16 C         138.7658  139.6248  165.5247 C.ar    1  UNL1        0.1551
     17 N         137.7383  138.8618  166.3071 N.ar    1  UNL1       -0.1577
     18 N         138.0943  138.9620  167.7608 N.ar    1  UNL1       -0.2786
     19 H         137.5966  138.5574  168.5077 H       1  UNL1        0.1886
     20 C         141.4727  139.9276  168.7258 C.3     1  UNL1        0.0059
     21 C         140.0500  140.1400  169.1510 C.3     1  UNL1        0.0349
     22 C         140.2641  140.5669  170.5730 C.3     1  UNL1        0.0059
     23 C         138.8733  140.4749  170.0188 C.3     1  UNL1        0.0059
     24 O         143.4109  137.6255  157.3781 O.3     1  UNL1       -0.4348
     25 C         143.0434  136.6027  156.3443 C.ar    1  UNL1        0.2295
     26 N         142.6768  137.0375  154.9562 N.ar    1  UNL1       -0.1893
     27 C         142.3093  136.0146  153.9224 C.ar    1  UNL1        0.2012
     28 N         142.3084  134.5570  154.2767 N.ar    1  UNL1       -0.2270
     29 C         142.6750  134.1223  155.6647 C.ar    1  UNL1        0.0785
     30 C         143.0425  135.1451  156.6985 C.ar    1  UNL1        0.0621
     31 C         143.3568  134.4221  157.9746 C.3     1  UNL1        0.1019
     32 N         143.1837  132.9524  157.7295 N.3     1  UNL1       -0.2886
     33 C         142.7623  132.7671  156.3019 C.3     1  UNL1        0.1153
     34 H         142.4677  132.5795  158.3529 H       1  UNL1        0.1239
@<TRIPOS>BOND
     1    20    21    1
     2    21    14    1
     3    14    15   ar
     4    15    16   ar
     5    16    10    1
     6    10    11   am
     7    11    12    2
     8    11     1    1
     9     1     2   ar
    10     2     3   ar
    11     3     4   ar
    12     4     5   ar
    13     5     6   ar
    14     6    24    1
    15    24    25    1
    16    25    26   ar
    17    26    27   ar
    18    27    28   ar
    19    28    29   ar
    20    29    30   ar
    21    30    31    1
    22    31    32    1
    23    32    33    1
    24     6     7   ar
    25     7     8   ar
    26     8     9   ar
    27    16    17   ar
    28    17    18   ar
    29    21    22    1
    30    22    23    1
    31    23    21    1
    32    18    14   ar
    33     9     1   ar
    34     9     4   ar
    35    30    25   ar
    36    33    29    1
    37    10    13    1
    38    32    34    1
    39    18    19    1
@<TRIPOS>MOLECULE
*****
 34 39 0 0 0
SMALL
GASTEIGER

@<TRIPOS>ATOM
      1 C         139.4408  144.2287  162.7049 C.ar    1  UNL1        0.0713
      2 C         138.0672  144.0401  163.2772 C.ar    1  UNL1        0.0250
      3 C         138.1954  143.2290  164.5324 C.ar    1  UNL1        0.0804
      4 N         139.6483  142.9164  164.7359 N.ar    1  UNL1       -0.3009
      5 C         140.3698  142.1489  165.8038 C.ar    1  UNL1        0.1182
      6 C         141.8610  141.9992  165.7422 C.ar    1  UNL1        0.1647
      7 C         142.6307  142.6171  164.6127 C.ar    1  UNL1        0.0406
      8 C         141.9092  143.3846  163.5448 C.ar    1  UNL1        0.0208
      9 C         140.4180  143.5342  163.6064 C.ar    1  UNL1        0.0687
     10 N         140.5060  144.2896  160.3359 N.am    1  UNL1       -0.2644
     11 C         139.7781  144.9800  161.4512 C.2     1  UNL1        0.2520
     12 O         139.3877  146.4216  161.3125 O.2     1  UNL1       -0.2697
     13 H         140.7623  143.3434  160.4268 H       1  UNL1        0.1566
     14 C         140.6409  146.1800  156.9487 C.ar    1  UNL1        0.0537
     15 C         139.8742  145.4552  158.0149 C.ar    1  UNL1        0.0502
     16 C         140.8433  145.0408  159.0822 C.ar    1  UNL1        0.1551
     17 N         142.2090  145.5096  158.6757 N.ar    1  UNL1       -0.1577
     18 N         142.0839  146.2137  157.3571 N.ar    1  UNL1       -0.2786
     19 H         142.8197  146.6255  156.8489 H       1  UNL1        0.1886
     20 C         140.9549  146.1231  154.6729 C.3     1  UNL1        0.0059
     21 C         140.0657  146.7681  155.6944 C.3     1  UNL1        0.0349
     22 C         139.1817  147.5800  154.7947 C.3     1  UNL1        0.0059
     23 C         138.9768  147.6172  156.2803 C.3     1  UNL1        0.0059
     24 O         142.5826  141.2317  166.8101 O.3     1  UNL1       -0.4348
     25 C         142.4196  141.6169  168.2505 C.ar    1  UNL1        0.2295
     26 N         143.3387  142.6311  168.8643 N.ar    1  UNL1       -0.1893
     27 C         143.1757  143.0164  170.3048 C.ar    1  UNL1        0.2012
     28 N         142.0935  142.3874  171.1315 N.ar    1  UNL1       -0.2270
     29 C         141.1744  141.3733  170.5178 C.ar    1  UNL1        0.0785
     30 C         141.3375  140.9880  169.0773 C.ar    1  UNL1        0.0621
     31 C         140.2889  139.9668  168.7491 C.3     1  UNL1        0.1019
     32 N         139.4779  139.7208  169.9867 N.3     1  UNL1       -0.2886
     33 C         140.0252  140.5901  171.0798 C.3     1  UNL1        0.1153
     34 H         139.5476  138.7398  170.2569 H       1  UNL1        0.1239
@<TRIPOS>BOND
     1    20    21    1
     2    21    14    1
     3    14    15   ar
     4    15    16   ar
     5    16    10    1
     6    10    11   am
     7    11    12    2
     8    11     1    1
     9     1     2   ar
    10     2     3   ar
    11     3     4   ar
    12     4     5   ar
    13     5     6   ar
    14     6    24    1
    15    24    25    1
    16    25    26   ar
    17    26    27   ar
    18    27    28   ar
    19    28    29   ar
    20    29    30   ar
    21    30    31    1
    22    31    32    1
    23    32    33    1
    24     6     7   ar
    25     7     8   ar
    26     8     9   ar
    27    16    17   ar
    28    17    18   ar
    29    21    22    1
    30    22    23    1
    31    23    21    1
    32    18    14   ar
    33     9     1   ar
    34     9     4   ar
    35    30    25   ar
    36    33    29    1
    37    10    13    1
    38    32    34    1
    39    18    19    1
@<TRIPOS>MOLECULE
*****
 34 39 0 0 0
SMALL
GASTEIGER

@<TRIPOS>ATOM
      1 C         142.9871  143.5270  161.9571 C.ar    1  UNL1        0.0713
      2 C         144.3704  143.5455  162.5369 C.ar    1  UNL1        0.0250
      3 C         144.2792  143.1035  163.9674 C.ar    1  UNL1        0.0804
      4 N         142.8397  142.8118  164.2717 N.ar    1  UNL1       -0.3009
      5 C         142.1529  142.3416  165.5195 C.ar    1  UNL1        0.1182
      6 C         140.6675  142.1332  165.5250 C.ar    1  UNL1        0.1647
      7 C         139.8688  142.3950  164.2825 C.ar    1  UNL1        0.0406
      8 C         140.5556  142.8652  163.0346 C.ar    1  UNL1        0.0208
      9 C         142.0411  143.0736  163.0292 C.ar    1  UNL1        0.0687
     10 N         141.7950  145.1260  160.2919 N.am    1  UNL1       -0.2644
     11 C         142.6151  143.8971  160.5519 C.2     1  UNL1        0.2520
     12 O         143.0630  143.0384  159.4066 O.2     1  UNL1       -0.2697
     13 H         141.5010  145.6896  161.0437 H       1  UNL1        0.1566
     14 C         140.1506  145.8256  156.8464 C.ar    1  UNL1        0.0537
     15 C         140.0717  145.3255  158.2584 C.ar    1  UNL1        0.0502
     16 C         141.4231  145.4960  158.8867 C.ar    1  UNL1        0.1551
     17 N         142.3371  146.1016  157.8631 N.ar    1  UNL1       -0.1577
     18 N         141.5507  146.3053  156.6021 N.ar    1  UNL1       -0.2786
     19 H         141.8933  146.6868  155.7617 H       1  UNL1        0.1886
     20 C         139.0269  147.2972  155.4853 C.3     1  UNL1        0.0059
     21 C         139.0268  145.8430  155.8531 C.3     1  UNL1        0.0349
     22 C         137.9029  145.3555  154.9876 C.3     1  UNL1        0.0059
     23 C         138.6363  144.3950  155.8761 C.3     1  UNL1        0.0059
     24 O         139.9806  141.6630  166.7729 O.3     1  UNL1       -0.4348
     25 C         140.5229  142.0471  168.1176 C.ar    1  UNL1        0.2295
     26 N         140.1603  143.3711  168.7223 N.ar    1  UNL1       -0.1893
     27 C         140.7026  143.7552  170.0670 C.ar    1  UNL1        0.2012
     28 N         141.6076  142.8153  170.8071 N.ar    1  UNL1       -0.2270
     29 C         141.9702  141.4914  170.2024 C.ar    1  UNL1        0.0785
     30 C         141.4278  141.1073  168.8577 C.ar    1  UNL1        0.0621
     31 C         141.9563  139.7455  168.5165 C.3     1  UNL1        0.1019
     32 N         142.8252  139.2880  169.6503 N.3     1  UNL1       -0.2886
     33 C         142.8338  140.3670  170.6923 C.3     1  UNL1        0.1153
     34 H         143.7742  139.1234  169.3146 H       1  UNL1        0.1239
@<TRIPOS>BOND
     1    20    21    1
     2    21    14    1
     3    14    15   ar
     4    15    16   ar
     5    16    10    1
     6    10    11   am
     7    11    12    2
     8    11     1    1
     9     1     2   ar
    10     2     3   ar
    11     3     4   ar
    12     4     5   ar
    13     5     6   ar
    14     6    24    1
    15    24    25    1
    16    25    26   ar
    17    26    27   ar
    18    27    28   ar
    19    28    29   ar
    20    29    30   ar
    21    30    31    1
    22    31    32    1
    23    32    33    1
    24     6     7   ar
    25     7     8   ar
    26     8     9   ar
    27    16    17   ar
    28    17    18   ar
    29    21    22    1
    30    22    23    1
    31    23    21    1
    32    18    14   ar
    33     9     1   ar
    34     9     4   ar
    35    30    25   ar
    36    33    29    1
    37    10    13    1
    38    32    34    1
    39    18    19    1
@<TRIPOS>MOLECULE
*****
 34 39 0 0 0
SMALL
GASTEIGER

@<TRIPOS>ATOM
      1 C         139.5477  144.0438  162.4607 C.ar    1  UNL1        0.0713
      2 C         138.7230  144.9763  163.2976 C.ar    1  UNL1        0.0250
      3 C         138.6707  144.4246  164.6914 C.ar    1  UNL1        0.0804
      4 N         139.4629  143.1511  164.7159 N.ar    1  UNL1       -0.3009
      5 C         139.7608  142.1754  165.8155 C.ar    1  UNL1        0.1182
      6 C         140.6007  140.9643  165.5364 C.ar    1  UNL1        0.1647
      7 C         141.1427  140.7290  164.1577 C.ar    1  UNL1        0.0406
      8 C         140.8448  141.7047  163.0581 C.ar    1  UNL1        0.0208
      9 C         140.0050  142.9158  163.3372 C.ar    1  UNL1        0.0687
     10 N         140.9733  145.1195  160.5736 N.am    1  UNL1       -0.2644
     11 C         139.8601  144.2102  161.0030 C.2     1  UNL1        0.2520
     12 O         139.0597  143.4674  159.9748 O.2     1  UNL1       -0.2697
     13 H         141.4987  145.6070  161.2484 H       1  UNL1        0.1566
     14 C         141.0822  145.8263  156.7587 C.ar    1  UNL1        0.0537
     15 C         140.3620  145.8439  158.0743 C.ar    1  UNL1        0.0502
     16 C         141.2858  145.2858  159.1160 C.ar    1  UNL1        0.1551
     17 N         142.5770  144.9232  158.4441 N.ar    1  UNL1       -0.1577
     18 N         142.4512  145.2572  156.9872 N.ar    1  UNL1       -0.2786
     19 H         143.1452  145.1260  156.3014 H       1  UNL1        0.1886
     20 C         139.3242  147.0480  155.9231 C.3     1  UNL1        0.0059
     21 C         140.5304  146.2953  155.4451 C.3     1  UNL1        0.0349
     22 C         140.3975  146.5029  153.9654 C.3     1  UNL1        0.0059
     23 C         141.5450  145.7055  154.5108 C.3     1  UNL1        0.0059
     24 O         140.8987  139.9885  166.6361 O.3     1  UNL1       -0.4348
     25 C         140.6521  140.3710  168.0654 C.ar    1  UNL1        0.2295
     26 N         139.4324  139.8654  168.7774 N.ar    1  UNL1       -0.1893
     27 C         139.1859  140.2479  170.2067 C.ar    1  UNL1        0.2012
     28 N         140.1590  141.1360  170.9240 N.ar    1  UNL1       -0.2270
     29 C         141.3786  141.6416  170.2120 C.ar    1  UNL1        0.0785
     30 C         141.6251  141.2591  168.7827 C.ar    1  UNL1        0.0621
     31 C         142.9053  141.9061  168.3439 C.3     1  UNL1        0.1019
     32 N         143.4500  142.6885  169.5020 N.3     1  UNL1       -0.2886
     33 C         142.5064  142.5250  170.6565 C.3     1  UNL1        0.1153
     34 H         143.5217  143.6744  169.2505 H       1  UNL1        0.1239
@<TRIPOS>BOND
     1    20    21    1
     2    21    14    1
     3    14    15   ar
     4    15    16   ar
     5    16    10    1
     6    10    11   am
     7    11    12    2
     8    11     1    1
     9     1     2   ar
    10     2     3   ar
    11     3     4   ar
    12     4     5   ar
    13     5     6   ar
    14     6    24    1
    15    24    25    1
    16    25    26   ar
    17    26    27   ar
    18    27    28   ar
    19    28    29   ar
    20    29    30   ar
    21    30    31    1
    22    31    32    1
    23    32    33    1
    24     6     7   ar
    25     7     8   ar
    26     8     9   ar
    27    16    17   ar
    28    17    18   ar
    29    21    22    1
    30    22    23    1
    31    23    21    1
    32    18    14   ar
    33     9     1   ar
    34     9     4   ar
    35    30    25   ar
    36    33    29    1
    37    10    13    1
    38    32    34    1
    39    18    19    1
@<TRIPOS>MOLECULE
*****
 34 39 0 0 0
SMALL
GASTEIGER

@<TRIPOS>ATOM
      1 C         139.2936  139.9604  158.5463 C.ar    1  UNL1        0.0713
      2 C         138.3494  140.3532  157.4490 C.ar    1  UNL1        0.0250
      3 C         138.8440  139.7427  156.1713 C.ar    1  UNL1        0.0804
      4 N         140.0938  138.9725  156.4789 N.ar    1  UNL1       -0.3009
      5 C         141.0148  138.1660  155.6121 C.ar    1  UNL1        0.1182
      6 C         142.2136  137.4941  156.2131 C.ar    1  UNL1        0.1647
      7 C         142.4915  137.6287  157.6810 C.ar    1  UNL1        0.0406
      8 C         141.5705  138.4351  158.5478 C.ar    1  UNL1        0.0208
      9 C         140.3717  139.1070  157.9468 C.ar    1  UNL1        0.0687
     10 N         138.1198  139.7345  160.8531 N.am    1  UNL1       -0.2644
     11 C         139.1797  140.3521  159.9898 C.2     1  UNL1        0.2520
     12 O         140.1255  141.3613  160.5699 O.2     1  UNL1       -0.2697
     13 H         137.4989  139.0720  160.4724 H       1  UNL1        0.1566
     14 C         138.2801  140.1595  164.7078 C.ar    1  UNL1        0.0537
     15 C         138.6663  139.4350  163.4525 C.ar    1  UNL1        0.0502
     16 C         138.0059  140.1262  162.2966 C.ar    1  UNL1        0.1551
     17 N         137.2115  141.2779  162.8376 N.ar    1  UNL1       -0.1577
     18 N         137.3810  141.2985  164.3278 N.ar    1  UNL1       -0.2786
     19 H         136.9737  141.9459  164.9476 H       1  UNL1        0.1886
     20 C         137.9929  138.5052  166.2769 C.3     1  UNL1        0.0059
     21 C         138.7164  139.8070  166.0990 C.3     1  UNL1        0.0349
     22 C         139.4040  139.9066  167.4284 C.3     1  UNL1        0.0059
     23 C         139.5915  140.9864  166.4043 C.3     1  UNL1        0.0059
     24 O         143.1346  136.6876  155.3463 O.3     1  UNL1       -0.4348
     25 C         142.7120  135.3332  154.8595 C.ar    1  UNL1        0.2295
     26 N         142.2223  135.1612  153.4521 N.ar    1  UNL1       -0.1893
     27 C         141.7996  133.8068  152.9653 C.ar    1  UNL1        0.2012
     28 N         141.8666  132.6244  153.8860 N.ar    1  UNL1       -0.2270
     29 C         142.3563  132.7964  155.2933 C.ar    1  UNL1        0.0785
     30 C         142.7789  134.1508  155.7801 C.ar    1  UNL1        0.0621
     31 C         143.2152  134.0145  157.2088 C.3     1  UNL1        0.1019
     32 N         143.0621  132.5759  157.6050 N.3     1  UNL1       -0.2886
     33 C         142.5313  131.8231  156.4212 C.3     1  UNL1        0.1153
     34 H         142.4094  132.4993  158.3850 H       1  UNL1        0.1239
@<TRIPOS>BOND
     1    20    21    1
     2    21    14    1
     3    14    15   ar
     4    15    16   ar
     5    16    10    1
     6    10    11   am
     7    11    12    2
     8    11     1    1
     9     1     2   ar
    10     2     3   ar
    11     3     4   ar
    12     4     5   ar
    13     5     6   ar
    14     6    24    1
    15    24    25    1
    16    25    26   ar
    17    26    27   ar
    18    27    28   ar
    19    28    29   ar
    20    29    30   ar
    21    30    31    1
    22    31    32    1
    23    32    33    1
    24     6     7   ar
    25     7     8   ar
    26     8     9   ar
    27    16    17   ar
    28    17    18   ar
    29    21    22    1
    30    22    23    1
    31    23    21    1
    32    18    14   ar
    33     9     1   ar
    34     9     4   ar
    35    30    25   ar
    36    33    29    1
    37    10    13    1
    38    32    34    1
    39    18    19    1
@<TRIPOS>MOLECULE
*****
 34 39 0 0 0
SMALL
GASTEIGER

@<TRIPOS>ATOM
      1 C         141.3512  144.3855  162.1369 C.ar    1  UNL1        0.0713
      2 C         142.7691  144.6736  162.5325 C.ar    1  UNL1        0.0250
      3 C         142.9989  144.0866  163.8936 C.ar    1  UNL1        0.0804
      4 N         141.7230  143.4357  164.3392 N.ar    1  UNL1       -0.3009
      5 C         141.3570  142.6988  165.5933 C.ar    1  UNL1        0.1182
      6 C         139.9726  142.1465  165.7617 C.ar    1  UNL1        0.1647
      7 C         138.9542  142.3312  164.6760 C.ar    1  UNL1        0.0406
      8 C         139.3203  143.0682  163.4219 C.ar    1  UNL1        0.0208
      9 C         140.7047  143.6205  163.2535 C.ar    1  UNL1        0.0687
     10 N         141.2248  144.2788  159.5440 N.am    1  UNL1       -0.2644
     11 C         140.6949  144.7911  160.8505 C.2     1  UNL1        0.2520
     12 O         139.5088  145.7091  160.8705 O.2     1  UNL1       -0.2697
     13 H         142.0034  143.6763  159.5308 H       1  UNL1        0.1566
     14 C         139.9391  145.9550  156.2879 C.ar    1  UNL1        0.0537
     15 C         140.7984  145.9687  157.5173 C.ar    1  UNL1        0.0502
     16 C         140.5686  144.6845  158.2576 C.ar    1  UNL1        0.1551
     17 N         139.5673  143.8772  157.4858 N.ar    1  UNL1       -0.1577
     18 N         139.1783  144.6624  156.2684 N.ar    1  UNL1       -0.2786
     19 H         138.5363  144.3792  155.5778 H       1  UNL1        0.1886
     20 C         140.7364  146.4615  154.1928 C.3     1  UNL1        0.0059
     21 C         139.8554  147.0429  155.2586 C.3     1  UNL1        0.0349
     22 C         139.4657  148.3328  154.5994 C.3     1  UNL1        0.0059
     23 C         138.9453  148.0021  155.9668 C.3     1  UNL1        0.0059
     24 O         139.6065  141.4095  167.0159 O.3     1  UNL1       -0.4348
     25 C         140.6815  140.8216  167.8812 C.ar    1  UNL1        0.2295
     26 N         141.6560  139.8386  167.3029 N.ar    1  UNL1       -0.1893
     27 C         142.7310  139.2508  168.1683 C.ar    1  UNL1        0.2012
     28 N         142.8315  139.6458  169.6119 N.ar    1  UNL1       -0.2270
     29 C         141.8571  140.6287  170.1900 C.ar    1  UNL1        0.0785
     30 C         140.7821  141.2166  169.3247 C.ar    1  UNL1        0.0621
     31 C         139.9700  142.1549  170.1675 C.3     1  UNL1        0.1019
     32 N         140.5431  142.1469  171.5537 N.3     1  UNL1       -0.2886
     33 C         141.7094  141.2037  171.5676 C.3     1  UNL1        0.1153
     34 H         139.8362  141.8332  172.2187 H       1  UNL1        0.1239
@<TRIPOS>BOND
     1    20    21    1
     2    21    14    1
     3    14    15   ar
     4    15    16   ar
     5    16    10    1
     6    10    11   am
     7    11    12    2
     8    11     1    1
     9     1     2   ar
    10     2     3   ar
    11     3     4   ar
    12     4     5   ar
    13     5     6   ar
    14     6    24    1
    15    24    25    1
    16    25    26   ar
    17    26    27   ar
    18    27    28   ar
    19    28    29   ar
    20    29    30   ar
    21    30    31    1
    22    31    32    1
    23    32    33    1
    24     6     7   ar
    25     7     8   ar
    26     8     9   ar
    27    16    17   ar
    28    17    18   ar
    29    21    22    1
    30    22    23    1
    31    23    21    1
    32    18    14   ar
    33     9     1   ar
    34     9     4   ar
    35    30    25   ar
    36    33    29    1
    37    10    13    1
    38    32    34    1
    39    18    19    1
@<TRIPOS>MOLECULE
*****
 34 39 0 0 0
SMALL
GASTEIGER

@<TRIPOS>ATOM
      1 C         143.2642  143.1012  161.3108 C.ar    1  UNL1        0.0713
      2 C         144.6194  142.5069  161.5560 C.ar    1  UNL1        0.0250
      3 C         144.7252  142.1810  163.0164 C.ar    1  UNL1        0.0804
      4 N         143.4354  142.5738  163.6737 N.ar    1  UNL1       -0.3009
      5 C         142.9665  142.4870  165.0958 C.ar    1  UNL1        0.1182
      6 C         141.5946  142.9690  165.4639 C.ar    1  UNL1        0.1647
      7 C         140.6916  143.5377  164.4098 C.ar    1  UNL1        0.0406
      8 C         141.1605  143.6245  162.9876 C.ar    1  UNL1        0.0208
      9 C         142.5324  143.1425  162.6196 C.ar    1  UNL1        0.0687
     10 N         142.0637  144.9094  159.8828 N.am    1  UNL1       -0.2644
     11 C         142.7338  143.5715  159.9889 C.2     1  UNL1        0.2520
     12 O         142.8733  142.7042  158.7732 O.2     1  UNL1       -0.2697
     13 H         141.9721  145.4788  160.6807 H       1  UNL1        0.1566
     14 C         140.0659  145.7583  156.6651 C.ar    1  UNL1        0.0537
     15 C         140.1678  145.0976  158.0078 C.ar    1  UNL1        0.0502
     16 C         141.5333  145.3798  158.5608 C.ar    1  UNL1        0.1551
     17 N         142.2753  146.2150  157.5599 N.ar    1  UNL1       -0.1577
     18 N         141.3684  146.4490  156.3882 N.ar    1  UNL1       -0.2786
     19 H         141.5892  146.9652  155.5795 H       1  UNL1        0.1886
     20 C         138.8436  147.1684  155.3239 C.3     1  UNL1        0.0059
     21 C         138.8713  145.7330  155.7584 C.3     1  UNL1        0.0349
     22 C         137.6863  145.2092  155.0025 C.3     1  UNL1        0.0059
     23 C         138.4841  144.2888  155.8779 C.3     1  UNL1        0.0059
     24 O         141.1256  142.8823  166.8861 O.3     1  UNL1       -0.4348
     25 C         140.3229  141.6993  167.3403 C.ar    1  UNL1        0.2295
     26 N         139.6075  140.8474  166.3340 N.ar    1  UNL1       -0.1893
     27 C         138.8048  139.6645  166.7883 C.ar    1  UNL1        0.2012
     28 N         138.7176  139.3334  168.2487 N.ar    1  UNL1       -0.2270
     29 C         139.4330  140.1853  169.2549 C.ar    1  UNL1        0.0785
     30 C         140.2357  141.3683  168.8007 C.ar    1  UNL1        0.0621
     31 C         140.8286  142.0199  170.0147 C.3     1  UNL1        0.1019
     32 N         140.3924  141.2396  171.2193 N.3     1  UNL1       -0.2886
     33 C         139.5298  140.1058  170.7496 C.3     1  UNL1        0.1153
     34 H         139.8606  141.8418  171.8478 H       1  UNL1        0.1239
@<TRIPOS>BOND
     1    20    21    1
     2    21    14    1
     3    14    15   ar
     4    15    16   ar
     5    16    10    1
     6    10    11   am
     7    11    12    2
     8    11     1    1
     9     1     2   ar
    10     2     3   ar
    11     3     4   ar
    12     4     5   ar
    13     5     6   ar
    14     6    24    1
    15    24    25    1
    16    25    26   ar
    17    26    27   ar
    18    27    28   ar
    19    28    29   ar
    20    29    30   ar
    21    30    31    1
    22    31    32    1
    23    32    33    1
    24     6     7   ar
    25     7     8   ar
    26     8     9   ar
    27    16    17   ar
    28    17    18   ar
    29    21    22    1
    30    22    23    1
    31    23    21    1
    32    18    14   ar
    33     9     1   ar
    34     9     4   ar
    35    30    25   ar
    36    33    29    1
    37    10    13    1
    38    32    34    1
    39    18    19    1
@<TRIPOS>MOLECULE
*****
 34 39 0 0 0
SMALL
GASTEIGER

@<TRIPOS>ATOM
      1 C         142.4394  144.3554  162.7285 C.ar    1  UNL1        0.0713
      2 C         143.5403  145.2440  163.2271 C.ar    1  UNL1        0.0250
      3 C         144.1077  144.6257  164.4704 C.ar    1  UNL1        0.0804
      4 N         143.3575  143.3551  164.7402 N.ar    1  UNL1       -0.3009
      5 C         143.4800  142.3286  165.8271 C.ar    1  UNL1        0.1182
      6 C         142.5715  141.1351  165.8374 C.ar    1  UNL1        0.1647
      7 C         141.5404  140.9681  164.7608 C.ar    1  UNL1        0.0406
      8 C         141.4179  141.9946  163.6739 C.ar    1  UNL1        0.0208
      9 C         142.3264  143.1881  163.6636 C.ar    1  UNL1        0.0687
     10 N         142.1781  144.3673  160.1436 N.am    1  UNL1       -0.2644
     11 C         141.5990  144.5927  161.5089 C.2     1  UNL1        0.2520
     12 O         140.1796  145.0552  161.6544 O.2     1  UNL1       -0.2697
     13 H         143.1098  144.0638  160.0480 H       1  UNL1        0.1566
     14 C         140.4228  145.6024  156.9096 C.ar    1  UNL1        0.0537
     15 C         141.4558  145.7680  157.9845 C.ar    1  UNL1        0.0502
     16 C         141.3377  144.6046  158.9240 C.ar    1  UNL1        0.1551
     17 N         140.2318  143.7200  158.4297 N.ar    1  UNL1       -0.1577
     18 N         139.6662  144.3367  157.1847 N.ar    1  UNL1       -0.2786
     19 H         138.9282  143.9743  156.6433 H       1  UNL1        0.1886
     20 C         141.1490  145.9692  154.7604 C.3     1  UNL1        0.0059
     21 C         140.1875  146.5382  155.7612 C.3     1  UNL1        0.0349
     22 C         139.6184  147.6717  154.9603 C.3     1  UNL1        0.0059
     23 C         139.1443  147.4323  156.3632 C.3     1  UNL1        0.0059
     24 O         142.6940  140.1086  166.9242 O.3     1  UNL1       -0.4348
     25 C         142.1527  140.3973  168.2930 C.ar    1  UNL1        0.2295
     26 N         143.0600  140.9333  169.3607 N.ar    1  UNL1       -0.1893
     27 C         142.5186  141.2220  170.7295 C.ar    1  UNL1        0.2012
     28 N         141.0701  140.9748  171.0306 N.ar    1  UNL1       -0.2270
     29 C         140.1629  140.4389  169.9631 C.ar    1  UNL1        0.0785
     30 C         140.7042  140.1501  168.5943 C.ar    1  UNL1        0.0621
     31 C         139.5780  139.6309  167.7505 C.3     1  UNL1        0.1019
     32 N         138.3406  139.5987  168.5977 N.3     1  UNL1       -0.2886
     33 C         138.7022  140.0980  169.9652 C.3     1  UNL1        0.1153
     34 H         137.9885  138.6434  168.6600 H       1  UNL1        0.1239
@<TRIPOS>BOND
     1    20    21    1
     2    21    14    1
     3    14    15   ar
     4    15    16   ar
     5    16    10    1
     6    10    11   am
     7    11    12    2
     8    11     1    1
     9     1     2   ar
    10     2     3   ar
    11     3     4   ar
    12     4     5   ar
    13     5     6   ar
    14     6    24    1
    15    24    25    1
    16    25    26   ar
    17    26    27   ar
    18    27    28   ar
    19    28    29   ar
    20    29    30   ar
    21    30    31    1
    22    31    32    1
    23    32    33    1
    24     6     7   ar
    25     7     8   ar
    26     8     9   ar
    27    16    17   ar
    28    17    18   ar
    29    21    22    1
    30    22    23    1
    31    23    21    1
    32    18    14   ar
    33     9     1   ar
    34     9     4   ar
    35    30    25   ar
    36    33    29    1
    37    10    13    1
    38    32    34    1
    39    18    19    1
@<TRIPOS>MOLECULE
*****
 34 39 0 0 0
SMALL
GASTEIGER

@<TRIPOS>ATOM
      1 C         138.2349  140.8435  162.2571 C.ar    1  UNL1        0.0713
      2 C         137.5255  142.0671  162.7567 C.ar    1  UNL1        0.0250
      3 C         137.9525  142.3037  164.1750 C.ar    1  UNL1        0.0804
      4 N         138.9257  141.2264  164.5520 N.ar    1  UNL1       -0.3009
      5 C         139.6754  140.9505  165.8215 C.ar    1  UNL1        0.1182
      6 C         140.5998  139.7722  165.9057 C.ar    1  UNL1        0.1647
      7 C         140.7743  138.8697  164.7203 C.ar    1  UNL1        0.0406
      8 C         140.0245  139.1455  163.4508 C.ar    1  UNL1        0.0208
      9 C         139.1002  140.3239  163.3667 C.ar    1  UNL1        0.0687
     10 N         139.2307  140.3597  159.9066 N.am    1  UNL1       -0.2644
     11 C         138.1022  140.2446  160.8882 C.2     1  UNL1        0.2520
     12 O         136.8412  139.5307  160.5009 O.2     1  UNL1       -0.2697
     13 H         140.0584  140.8283  160.1608 H       1  UNL1        0.1566
     14 C         139.3975  138.3139  156.6124 C.ar    1  UNL1        0.0537
     15 C         139.8351  138.5588  158.0261 C.ar    1  UNL1        0.0502
     16 C         139.0980  139.7608  158.5378 C.ar    1  UNL1        0.1551
     17 N         138.2049  140.2589  157.4403 N.ar    1  UNL1       -0.1577
     18 N         138.3901  139.3646  156.2503 N.ar    1  UNL1       -0.2786
     19 H         137.9310  139.4520  155.3838 H       1  UNL1        0.1886
     20 C         138.7774  137.1948  154.7034 C.3     1  UNL1        0.0059
     21 C         139.8823  137.2118  155.7177 C.3     1  UNL1        0.0349
     22 C         140.7508  136.1157  155.1753 C.3     1  UNL1        0.0059
     23 C         141.1555  136.8462  156.4214 C.3     1  UNL1        0.0059
     24 O         141.3496  139.4963  167.1752 O.3     1  UNL1       -0.4348
     25 C         140.9594  140.1953  168.4438 C.ar    1  UNL1        0.2295
     26 N         139.6732  139.8416  169.1299 N.ar    1  UNL1       -0.1893
     27 C         139.2830  140.5406  170.3984 C.ar    1  UNL1        0.2012
     28 N         140.1790  141.5933  170.9808 N.ar    1  UNL1       -0.2270
     29 C         141.4651  141.9469  170.2947 C.ar    1  UNL1        0.0785
     30 C         141.8553  141.2479  169.0262 C.ar    1  UNL1        0.0621
     31 C         143.1740  141.8042  168.5772 C.3     1  UNL1        0.1019
     32 N         143.5989  142.8469  169.5683 N.3     1  UNL1       -0.2886
     33 C         142.5427  142.9351  170.6297 C.3     1  UNL1        0.1153
     34 H         143.6967  143.7486  169.1015 H       1  UNL1        0.1239
@<TRIPOS>BOND
     1    20    21    1
     2    21    14    1
     3    14    15   ar
     4    15    16   ar
     5    16    10    1
     6    10    11   am
     7    11    12    2
     8    11     1    1
     9     1     2   ar
    10     2     3   ar
    11     3     4   ar
    12     4     5   ar
    13     5     6   ar
    14     6    24    1
    15    24    25    1
    16    25    26   ar
    17    26    27   ar
    18    27    28   ar
    19    28    29   ar
    20    29    30   ar
    21    30    31    1
    22    31    32    1
    23    32    33    1
    24     6     7   ar
    25     7     8   ar
    26     8     9   ar
    27    16    17   ar
    28    17    18   ar
    29    21    22    1
    30    22    23    1
    31    23    21    1
    32    18    14   ar
    33     9     1   ar
    34     9     4   ar
    35    30    25   ar
    36    33    29    1
    37    10    13    1
    38    32    34    1
    39    18    19    1
