@<TRIPOS>MOLECULE
*****
 31 33 0 0 0
SMALL
GASTEIGER

@<TRIPOS>ATOM
      1 C         141.1740  143.8875  163.4914 C.ar    1  UNL1        0.1255
      2 C         142.0138  142.7710  164.0374 C.ar    1  UNL1        0.0233
      3 C         141.6759  142.1580  165.3641 C.ar    1  UNL1        0.0383
      4 C         140.4981  142.6614  166.1447 C.ar    1  UNL1        0.1386
      5 C         139.6582  143.7779  165.5986 C.ar    1  UNL1        0.0383
      6 C         139.9961  144.3909  164.2720 C.ar    1  UNL1        0.0233
      7 S         141.5119  144.5005  162.1647 S.O2    1  UNL1        0.0768
      8 O         140.8085  145.7622  162.5686 O.2     1  UNL1       -0.1498
      9 O         142.2152  143.2387  161.7608 O.2     1  UNL1       -0.1498
     10 O         139.5337  144.3865  159.9122 O.2     1  UNL1       -0.2509
     11 C         140.8607  145.0565  159.7118 C.2     1  UNL1        0.3231
     12 N         141.1986  145.6695  158.3852 N.am    1  UNL1       -0.2671
     13 N         141.8498  145.1135  160.8381 N.am    1  UNL1       -0.1690
     14 H         142.0696  146.1093  158.2537 H       1  UNL1        0.1565
     15 H         142.7208  145.5533  160.7066 H       1  UNL1        0.1781
     16 C         140.2095  145.6125  157.2589 C.ar    1  UNL1        0.0516
     17 C         139.7900  144.2872  156.6955 C.ar    1  UNL1        0.0147
     18 C         138.8009  144.2302  155.5693 C.ar    1  UNL1        0.0013
     19 C         138.2315  145.4986  155.0063 C.ar    1  UNL1        0.0001
     20 C         138.6510  146.8240  155.5697 C.ar    1  UNL1        0.0013
     21 C         139.6401  146.8809  156.6959 C.ar    1  UNL1        0.0147
     22 O         140.1602  142.0484  167.4713 O.3     1  UNL1       -0.4754
     23 C         140.1475  140.5565  167.6267 C.3     1  UNL1        0.2068
     24 C         139.0983  139.7391  166.9332 C.3     1  UNL1        0.0646
     25 C         139.4764  138.8527  165.7837 C.3     1  UNL1        0.0759
     26 N         138.8888  139.0948  164.4250 N.3     1  UNL1       -0.2726
     27 C         138.3166  140.4388  164.0840 C.3     1  UNL1        0.0721
     28 C         137.7289  140.6809  162.7252 C.3     1  UNL1        0.0174
     29 C         137.7135  139.5790  161.7076 C.3     1  UNL1        0.0029
     30 C         138.2857  138.2350  162.0486 C.3     1  UNL1        0.0174
     31 C         138.8733  137.9929  163.4073 C.3     1  UNL1        0.0721
@<TRIPOS>BOND
     1    10    11    2
     2    11    12   am
     3    12    16    1
     4    16    17   ar
     5    17    18   ar
     6    18    19   ar
     7    19    20   ar
     8    20    21   ar
     9    11    13   am
    10    13     7    1
    11     7     8    2
    12     7     9    2
    13     7     1    1
    14     1     2   ar
    15     2     3   ar
    16     3     4   ar
    17     4    22    1
    18    22    23    1
    19    23    24    1
    20    24    25    1
    21    25    26    1
    22    26    27    1
    23    27    28    1
    24    28    29    1
    25    29    30    1
    26    30    31    1
    27     4     5   ar
    28     5     6   ar
    29    21    16   ar
    30     6     1   ar
    31    31    26    1
    32    12    14    1
    33    13    15    1
@<TRIPOS>MOLECULE
*****
 31 33 0 0 0
SMALL
GASTEIGER

@<TRIPOS>ATOM
      1 C         138.4652  139.1920  163.1876 C.ar    1  UNL1        0.1255
      2 C         138.1111  140.4597  162.4683 C.ar    1  UNL1        0.0233
      3 C         138.2366  140.5351  160.9754 C.ar    1  UNL1        0.0383
      4 C         138.7163  139.3427  160.2019 C.ar    1  UNL1        0.1386
      5 C         139.0704  138.0750  160.9213 C.ar    1  UNL1        0.0383
      6 C         138.9448  137.9996  162.4141 C.ar    1  UNL1        0.0233
      7 S         138.3397  139.1166  164.6804 S.O2    1  UNL1        0.0768
      8 O         137.7095  140.4776  164.6962 O.2     1  UNL1       -0.1498
      9 O         138.9699  137.7555  164.6647 O.2     1  UNL1       -0.1498
     10 O         140.3576  140.4874  166.4265 O.2     1  UNL1       -0.2509
     11 C         139.2232  139.7266  167.0463 C.2     1  UNL1        0.3231
     12 N         139.0976  139.6512  168.5391 N.am    1  UNL1       -0.2671
     13 N         138.2142  139.0412  166.1732 N.am    1  UNL1       -0.1690
     14 H         138.3531  139.1518  168.9459 H       1  UNL1        0.1565
     15 H         137.4696  138.5418  166.5800 H       1  UNL1        0.1781
     16 C         140.1066  140.3366  169.4122 C.ar    1  UNL1        0.0516
     17 C         139.7930  141.6749  170.0127 C.ar    1  UNL1        0.0147
     18 C         140.8019  142.3602  170.8857 C.ar    1  UNL1        0.0013
     19 C         142.1246  141.7073  171.1583 C.ar    1  UNL1        0.0001
     20 C         142.4382  140.3690  170.5579 C.ar    1  UNL1        0.0013
     21 C         141.4293  139.6837  169.6848 C.ar    1  UNL1        0.0147
     22 O         138.8418  139.4181  158.7091 O.3     1  UNL1       -0.4754
     23 C         140.1961  139.3641  158.0667 C.3     1  UNL1        0.2068
     24 C         141.2935  140.2637  158.5532 C.3     1  UNL1        0.0646
     25 C         142.4534  139.6894  159.3113 C.3     1  UNL1        0.0759
     26 N         142.3739  139.5368  160.8014 N.3     1  UNL1       -0.2726
     27 C         142.7253  138.2262  161.4409 C.3     1  UNL1        0.0721
     28 C         142.6457  138.0737  162.9311 C.3     1  UNL1        0.0174
     29 C         142.2148  139.2316  163.7816 C.3     1  UNL1        0.0029
     30 C         141.8634  140.5421  163.1421 C.3     1  UNL1        0.0174
     31 C         141.9429  140.6947  161.6520 C.3     1  UNL1        0.0721
@<TRIPOS>BOND
     1    10    11    2
     2    11    12   am
     3    12    16    1
     4    16    17   ar
     5    17    18   ar
     6    18    19   ar
     7    19    20   ar
     8    20    21   ar
     9    11    13   am
    10    13     7    1
    11     7     8    2
    12     7     9    2
    13     7     1    1
    14     1     2   ar
    15     2     3   ar
    16     3     4   ar
    17     4    22    1
    18    22    23    1
    19    23    24    1
    20    24    25    1
    21    25    26    1
    22    26    27    1
    23    27    28    1
    24    28    29    1
    25    29    30    1
    26    30    31    1
    27     4     5   ar
    28     5     6   ar
    29    21    16   ar
    30     6     1   ar
    31    31    26    1
    32    12    14    1
    33    13    15    1
@<TRIPOS>MOLECULE
*****
 31 33 0 0 0
SMALL
GASTEIGER

@<TRIPOS>ATOM
      1 C         143.4832  139.0161  162.8792 C.ar    1  UNL1        0.1255
      2 C         142.8602  137.8525  162.1665 C.ar    1  UNL1        0.0233
      3 C         142.8382  137.8159  160.6670 C.ar    1  UNL1        0.0383
      4 C         143.4392  138.9429  159.8804 C.ar    1  UNL1        0.1386
      5 C         144.0622  140.1064  160.5932 C.ar    1  UNL1        0.0383
      6 C         144.0842  140.1431  162.0925 C.ar    1  UNL1        0.0233
      7 S         143.5052  139.0527  164.3786 S.O2    1  UNL1        0.0768
      8 O         144.5928  140.0849  164.3374 O.2     1  UNL1       -0.1498
      9 O         142.4176  138.0206  164.4198 O.2     1  UNL1       -0.1498
     10 O         141.6972  140.9334  165.8598 O.2     1  UNL1       -0.2509
     11 C         142.6232  140.0297  166.6186 C.2     1  UNL1        0.3231
     12 N         142.6452  140.0664  168.1179 N.am    1  UNL1       -0.2671
     13 N         143.5273  139.0893  165.8779 N.am    1  UNL1       -0.1690
     14 H         143.2530  139.4732  168.6160 H       1  UNL1        0.1565
     15 H         144.1351  138.4962  166.3760 H       1  UNL1        0.1781
     16 C         141.7412  141.0067  168.8586 C.ar    1  UNL1        0.0516
     17 C         142.1743  142.4204  169.1115 C.ar    1  UNL1        0.0147
     18 C         141.2703  143.3606  169.8521 C.ar    1  UNL1        0.0013
     19 C         139.9331  142.8873  170.3398 C.ar    1  UNL1        0.0001
     20 C         139.5000  141.4737  170.0870 C.ar    1  UNL1        0.0013
     21 C         140.4040  140.5334  169.3463 C.ar    1  UNL1        0.0147
     22 O         143.4171  138.9062  158.3811 O.3     1  UNL1       -0.4754
     23 C         142.1074  138.8695  157.6509 C.3     1  UNL1        0.2068
     24 C         140.9837  139.7653  158.0807 C.3     1  UNL1        0.0646
     25 C         139.7901  139.1876  158.7818 C.3     1  UNL1        0.0759
     26 N         139.6934  139.2546  160.2772 N.3     1  UNL1       -0.2726
     27 C         139.0873  138.1150  161.0414 C.3     1  UNL1        0.0721
     28 C         138.9907  138.1821  162.5368 C.3     1  UNL1        0.0174
     29 C         139.5002  139.3886  163.2680 C.3     1  UNL1        0.0029
     30 C         140.1063  140.5282  162.5037 C.3     1  UNL1        0.0174
     31 C         140.2029  140.4612  161.0084 C.3     1  UNL1        0.0721
@<TRIPOS>BOND
     1    10    11    2
     2    11    12   am
     3    12    16    1
     4    16    17   ar
     5    17    18   ar
     6    18    19   ar
     7    19    20   ar
     8    20    21   ar
     9    11    13   am
    10    13     7    1
    11     7     8    2
    12     7     9    2
    13     7     1    1
    14     1     2   ar
    15     2     3   ar
    16     3     4   ar
    17     4    22    1
    18    22    23    1
    19    23    24    1
    20    24    25    1
    21    25    26    1
    22    26    27    1
    23    27    28    1
    24    28    29    1
    25    29    30    1
    26    30    31    1
    27     4     5   ar
    28     5     6   ar
    29    21    16   ar
    30     6     1   ar
    31    31    26    1
    32    12    14    1
    33    13    15    1
@<TRIPOS>MOLECULE
*****
 31 33 0 0 0
SMALL
GASTEIGER

@<TRIPOS>ATOM
      1 C         141.4965  142.9321  163.6129 C.ar    1  UNL1        0.1255
      2 C         140.6944  143.3065  164.8238 C.ar    1  UNL1        0.0233
      3 C         140.3907  142.2757  165.8704 C.ar    1  UNL1        0.0383
      4 C         140.8891  140.8706  165.7060 C.ar    1  UNL1        0.1386
      5 C         141.6913  140.4962  164.4951 C.ar    1  UNL1        0.0383
      6 C         141.9950  141.5269  163.4485 C.ar    1  UNL1        0.0233
      7 S         141.8002  143.9628  162.5663 S.O2    1  UNL1        0.0768
      8 O         143.0542  143.2244  162.2030 O.2     1  UNL1       -0.1498
      9 O         140.5462  144.7012  162.9296 O.2     1  UNL1       -0.1498
     10 O         140.7663  143.6129  159.7719 O.2     1  UNL1       -0.2509
     11 C         141.5870  144.8186  160.1225 C.2     1  UNL1        0.3231
     12 N         141.8907  145.8493  159.0759 N.am    1  UNL1       -0.2671
     13 N         142.1039  144.9935  161.5197 N.am    1  UNL1       -0.1690
     14 H         142.4293  146.6406  159.3060 H       1  UNL1        0.1565
     15 H         142.6425  145.7849  161.7499 H       1  UNL1        0.1781
     16 C         141.3737  145.6744  157.6786 C.ar    1  UNL1        0.0516
     17 C         140.0614  146.2834  157.2827 C.ar    1  UNL1        0.0147
     18 C         139.5445  146.1085  155.8855 C.ar    1  UNL1        0.0013
     19 C         140.3400  145.3245  154.8843 C.ar    1  UNL1        0.0001
     20 C         141.6523  144.7154  155.2802 C.ar    1  UNL1        0.0013
     21 C         142.1692  144.8904  156.6774 C.ar    1  UNL1        0.0147
     22 O         140.5854  139.8399  166.7526 O.3     1  UNL1       -0.4754
     23 C         139.1979  139.7238  167.3106 C.3     1  UNL1        0.2068
     24 C         138.1499  138.9559  166.5608 C.3     1  UNL1        0.0646
     25 C         138.5532  137.9840  165.4919 C.3     1  UNL1        0.0759
     26 N         138.7604  138.4601  164.0847 N.3     1  UNL1       -0.2726
     27 C         139.5699  137.6379  163.1262 C.3     1  UNL1        0.0721
     28 C         139.7771  138.1142  161.7189 C.3     1  UNL1        0.0174
     29 C         139.1748  139.4125  161.2702 C.3     1  UNL1        0.0029
     30 C         138.3653  140.2347  162.2287 C.3     1  UNL1        0.0174
     31 C         138.1581  139.7586  163.6359 C.3     1  UNL1        0.0721
@<TRIPOS>BOND
     1    10    11    2
     2    11    12   am
     3    12    16    1
     4    16    17   ar
     5    17    18   ar
     6    18    19   ar
     7    19    20   ar
     8    20    21   ar
     9    11    13   am
    10    13     7    1
    11     7     8    2
    12     7     9    2
    13     7     1    1
    14     1     2   ar
    15     2     3   ar
    16     3     4   ar
    17     4    22    1
    18    22    23    1
    19    23    24    1
    20    24    25    1
    21    25    26    1
    22    26    27    1
    23    27    28    1
    24    28    29    1
    25    29    30    1
    26    30    31    1
    27     4     5   ar
    28     5     6   ar
    29    21    16   ar
    30     6     1   ar
    31    31    26    1
    32    12    14    1
    33    13    15    1
@<TRIPOS>MOLECULE
*****
 31 33 0 0 0
SMALL
GASTEIGER

@<TRIPOS>ATOM
      1 C         141.4651  138.3226  162.8402 C.ar    1  UNL1        0.1255
      2 C         140.0170  137.9714  162.6677 C.ar    1  UNL1        0.0233
      3 C         139.3858  138.0382  161.3086 C.ar    1  UNL1        0.0383
      4 C         140.2026  138.4562  160.1220 C.ar    1  UNL1        0.1386
      5 C         141.6507  138.8075  160.2945 C.ar    1  UNL1        0.0383
      6 C         142.2819  138.7407  161.6535 C.ar    1  UNL1        0.0233
      7 S         142.0963  138.2558  164.1992 S.O2    1  UNL1        0.0768
      8 O         141.0700  137.2488  164.6264 O.2     1  UNL1       -0.1498
      9 O         143.1225  139.2629  163.7720 O.2     1  UNL1       -0.1498
     10 O         141.2827  140.2063  166.3285 O.2     1  UNL1       -0.2509
     11 C         142.3207  139.1643  166.6229 C.2     1  UNL1        0.3231
     12 N         142.9519  139.0975  167.9820 N.am    1  UNL1       -0.2671
     13 N         142.7275  138.1891  165.5583 N.am    1  UNL1       -0.1690
     14 H         143.6332  138.4136  168.1752 H       1  UNL1        0.1565
     15 H         143.4088  137.5051  165.7515 H       1  UNL1        0.1781
     16 C         142.5451  140.0728  169.0467 C.ar    1  UNL1        0.0516
     17 C         143.1752  141.4331  169.0981 C.ar    1  UNL1        0.0147
     18 C         142.7684  142.4082  170.1627 C.ar    1  UNL1        0.0013
     19 C         141.7315  142.0232  171.1759 C.ar    1  UNL1        0.0001
     20 C         141.1014  140.6629  171.1245 C.ar    1  UNL1        0.0013
     21 C         141.5082  139.6877  170.0599 C.ar    1  UNL1        0.0147
     22 O         139.5714  138.5230  158.7629 O.3     1  UNL1       -0.4754
     23 C         138.8770  139.7764  158.3193 C.3     1  UNL1        0.2068
     24 C         139.4437  141.1167  158.6833 C.3     1  UNL1        0.0646
     25 C         138.7166  141.9999  159.6536 C.3     1  UNL1        0.0759
     26 N         138.7879  141.7162  161.1247 N.3     1  UNL1       -0.2726
     27 C         137.5958  141.1505  161.8381 C.3     1  UNL1        0.0721
     28 C         137.6672  140.8668  163.3094 C.3     1  UNL1        0.0174
     29 C         138.9306  141.1488  164.0672 C.3     1  UNL1        0.0029
     30 C         140.1226  141.7145  163.3538 C.3     1  UNL1        0.0174
     31 C         140.0513  141.9982  161.8826 C.3     1  UNL1        0.0721
@<TRIPOS>BOND
     1    10    11    2
     2    11    12   am
     3    12    16    1
     4    16    17   ar
     5    17    18   ar
     6    18    19   ar
     7    19    20   ar
     8    20    21   ar
     9    11    13   am
    10    13     7    1
    11     7     8    2
    12     7     9    2
    13     7     1    1
    14     1     2   ar
    15     2     3   ar
    16     3     4   ar
    17     4    22    1
    18    22    23    1
    19    23    24    1
    20    24    25    1
    21    25    26    1
    22    26    27    1
    23    27    28    1
    24    28    29    1
    25    29    30    1
    26    30    31    1
    27     4     5   ar
    28     5     6   ar
    29    21    16   ar
    30     6     1   ar
    31    31    26    1
    32    12    14    1
    33    13    15    1
@<TRIPOS>MOLECULE
*****
 31 33 0 0 0
SMALL
GASTEIGER

@<TRIPOS>ATOM
      1 C         141.1578  144.1412  163.5434 C.ar    1  UNL1        0.1255
      2 C         142.1412  143.2878  164.2882 C.ar    1  UNL1        0.0233
      3 C         141.7978  142.7632  165.6510 C.ar    1  UNL1        0.0383
      4 C         140.4712  143.0920  166.2688 C.ar    1  UNL1        0.1386
      5 C         139.4878  143.9454  165.5240 C.ar    1  UNL1        0.0383
      6 C         139.8311  144.4700  164.1613 C.ar    1  UNL1        0.0233
      7 S         141.5011  144.6657  162.1807 S.O2    1  UNL1        0.0768
      8 O         142.2307  143.3915  161.8740 O.2     1  UNL1       -0.1498
      9 O         140.7715  145.9399  162.4874 O.2     1  UNL1       -0.1498
     10 O         139.4911  144.5006  159.9597 O.2     1  UNL1       -0.2509
     11 C         140.8394  145.1077  159.7075 C.2     1  UNL1        0.3231
     12 N         141.1827  145.6323  158.3448 N.am    1  UNL1       -0.2671
     13 N         141.8444  145.1903  160.8180 N.am    1  UNL1       -0.1690
     14 H         142.0676  146.0308  158.1793 H       1  UNL1        0.1565
     15 H         142.7293  145.5888  160.6525 H       1  UNL1        0.1781
     16 C         140.1777  145.5497  157.2342 C.ar    1  UNL1        0.0516
     17 C         139.6404  146.8053  156.6141 C.ar    1  UNL1        0.0147
     18 C         138.6355  146.7227  155.5036 C.ar    1  UNL1        0.0013
     19 C         138.1678  145.3845  155.0133 C.ar    1  UNL1        0.0001
     20 C         138.7051  144.1289  155.6334 C.ar    1  UNL1        0.0013
     21 C         139.7100  144.2115  156.7439 C.ar    1  UNL1        0.0147
     22 O         140.1279  142.5675  167.6315 O.3     1  UNL1       -0.4754
     23 C         141.1441  142.6206  168.7335 C.3     1  UNL1        0.2068
     24 C         141.8892  141.3796  169.1272 C.3     1  UNL1        0.0646
     25 C         141.3562  140.0312  168.7428 C.3     1  UNL1        0.0759
     26 N         141.6358  139.4754  167.3780 N.3     1  UNL1       -0.2726
     27 C         140.5285  139.3637  166.3723 C.3     1  UNL1        0.0721
     28 C         140.8082  138.8079  165.0074 C.3     1  UNL1        0.0174
     29 C         142.1952  138.3637  164.6483 C.3     1  UNL1        0.0029
     30 C         143.3025  138.4754  165.6539 C.3     1  UNL1        0.0174
     31 C         143.0228  139.0312  167.0188 C.3     1  UNL1        0.0721
@<TRIPOS>BOND
     1    10    11    2
     2    11    12   am
     3    12    16    1
     4    16    17   ar
     5    17    18   ar
     6    18    19   ar
     7    19    20   ar
     8    20    21   ar
     9    11    13   am
    10    13     7    1
    11     7     8    2
    12     7     9    2
    13     7     1    1
    14     1     2   ar
    15     2     3   ar
    16     3     4   ar
    17     4    22    1
    18    22    23    1
    19    23    24    1
    20    24    25    1
    21    25    26    1
    22    26    27    1
    23    27    28    1
    24    28    29    1
    25    29    30    1
    26    30    31    1
    27     4     5   ar
    28     5     6   ar
    29    21    16   ar
    30     6     1   ar
    31    31    26    1
    32    12    14    1
    33    13    15    1
@<TRIPOS>MOLECULE
*****
 31 33 0 0 0
SMALL
GASTEIGER

@<TRIPOS>ATOM
      1 C         141.1506  141.0676  168.1430 C.ar    1  UNL1        0.1255
      2 C         140.4557  139.9418  167.4361 C.ar    1  UNL1        0.0233
      3 C         139.5673  140.2281  166.2618 C.ar    1  UNL1        0.0383
      4 C         139.3739  141.6402  165.7944 C.ar    1  UNL1        0.1386
      5 C         140.0688  142.7660  166.5012 C.ar    1  UNL1        0.0383
      6 C         140.9571  142.4797  167.6755 C.ar    1  UNL1        0.0233
      7 S         142.0389  140.7813  169.3172 S.O2    1  UNL1        0.0768
      8 O         143.2031  141.3755  168.5814 O.2     1  UNL1       -0.1498
      9 O         140.8746  140.1871  170.0531 O.2     1  UNL1       -0.1498
     10 O         143.1095  138.0122  169.7483 O.2     1  UNL1       -0.2509
     11 C         143.4625  139.1105  170.7071 C.2     1  UNL1        0.3231
     12 N         144.3508  138.8242  171.8813 N.am    1  UNL1       -0.2671
     13 N         142.9271  140.4951  170.4915 N.am    1  UNL1       -0.1690
     14 H         144.5825  139.5451  172.5106 H       1  UNL1        0.1565
     15 H         143.1588  141.2159  171.1208 H       1  UNL1        0.1781
     16 C         144.8862  137.4396  172.0969 C.ar    1  UNL1        0.0516
     17 C         144.2784  136.2785  171.3673 C.ar    1  UNL1        0.0147
     18 C         144.8137  134.8940  171.5829 C.ar    1  UNL1        0.0013
     19 C         145.9569  134.6707  172.5280 C.ar    1  UNL1        0.0001
     20 C         146.5647  135.8318  173.2576 C.ar    1  UNL1        0.0013
     21 C         146.0293  137.2163  173.0421 C.ar    1  UNL1        0.0147
     22 O         138.4856  141.9264  164.6201 O.3     1  UNL1       -0.4754
     23 C         138.5762  141.0777  163.3866 C.3     1  UNL1        0.2068
     24 C         139.3930  141.5401  162.2164 C.3     1  UNL1        0.0646
     25 C         140.8471  141.1827  162.1288 C.3     1  UNL1        0.0759
     26 N         141.8029  141.6662  163.1788 N.3     1  UNL1       -0.2726
     27 C         142.0454  143.1363  163.3526 C.3     1  UNL1        0.0721
     28 C         143.0012  143.6198  164.4027 C.3     1  UNL1        0.0174
     29 C         143.7145  142.6332  165.2790 C.3     1  UNL1        0.0029
     30 C         143.4720  141.1632  165.1052 C.3     1  UNL1        0.0174
     31 C         142.5162  140.6797  164.0552 C.3     1  UNL1        0.0721
@<TRIPOS>BOND
     1    10    11    2
     2    11    12   am
     3    12    16    1
     4    16    17   ar
     5    17    18   ar
     6    18    19   ar
     7    19    20   ar
     8    20    21   ar
     9    11    13   am
    10    13     7    1
    11     7     8    2
    12     7     9    2
    13     7     1    1
    14     1     2   ar
    15     2     3   ar
    16     3     4   ar
    17     4    22    1
    18    22    23    1
    19    23    24    1
    20    24    25    1
    21    25    26    1
    22    26    27    1
    23    27    28    1
    24    28    29    1
    25    29    30    1
    26    30    31    1
    27     4     5   ar
    28     5     6   ar
    29    21    16   ar
    30     6     1   ar
    31    31    26    1
    32    12    14    1
    33    13    15    1
@<TRIPOS>MOLECULE
*****
 31 33 0 0 0
SMALL
GASTEIGER

@<TRIPOS>ATOM
      1 C         142.9691  139.0270  162.8714 C.ar    1  UNL1        0.1255
      2 C         144.1408  139.6591  163.5625 C.ar    1  UNL1        0.0233
      3 C         144.3336  139.4684  165.0378 C.ar    1  UNL1        0.0383
      4 C         143.3548  138.6458  165.8220 C.ar    1  UNL1        0.1386
      5 C         142.1831  138.0137  165.1310 C.ar    1  UNL1        0.0383
      6 C         141.9902  138.2043  163.6557 C.ar    1  UNL1        0.0233
      7 S         142.7762  139.2176  161.3962 S.O2    1  UNL1        0.0768
      8 O         141.2890  139.1631  161.5836 O.2     1  UNL1       -0.1498
      9 O         144.2635  139.2720  161.2088 O.2     1  UNL1       -0.1498
     10 O         142.8557  136.8504  159.5548 O.2     1  UNL1       -0.2509
     11 C         142.6231  138.2246  159.0002 C.2     1  UNL1        0.3231
     12 N         142.4302  138.4152  157.5249 N.am    1  UNL1       -0.2671
     13 N         142.5834  139.4082  159.9209 N.am    1  UNL1       -0.1690
     14 H         142.2776  139.3171  157.1609 H       1  UNL1        0.1565
     15 H         142.4307  140.3101  159.5569 H       1  UNL1        0.1781
     16 C         142.4700  137.2316  156.6042 C.ar    1  UNL1        0.0516
     17 C         141.1938  136.5629  156.1868 C.ar    1  UNL1        0.0147
     18 C         141.2336  135.3794  155.2662 C.ar    1  UNL1        0.0013
     19 C         142.5495  134.8645  154.7629 C.ar    1  UNL1        0.0001
     20 C         143.8257  135.5332  155.1803 C.ar    1  UNL1        0.0013
     21 C         143.7859  136.7167  156.1010 C.ar    1  UNL1        0.0147
     22 O         143.5477  138.4552  167.2973 O.3     1  UNL1       -0.4754
     23 C         142.7057  139.2269  168.2696 C.3     1  UNL1        0.2068
     24 C         142.6016  140.7188  168.1525 C.3     1  UNL1        0.0646
     25 C         141.2651  141.3621  167.9294 C.3     1  UNL1        0.0759
     26 N         140.3316  140.8118  166.8922 N.3     1  UNL1       -0.2726
     27 C         140.4354  141.2740  165.4689 C.3     1  UNL1        0.0721
     28 C         139.5018  140.7236  164.4317 C.3     1  UNL1        0.0174
     29 C         138.4646  139.7112  164.8178 C.3     1  UNL1        0.0029
     30 C         138.3609  139.2491  166.2411 C.3     1  UNL1        0.0174
     31 C         139.2943  139.7994  167.2783 C.3     1  UNL1        0.0721
@<TRIPOS>BOND
     1    10    11    2
     2    11    12   am
     3    12    16    1
     4    16    17   ar
     5    17    18   ar
     6    18    19   ar
     7    19    20   ar
     8    20    21   ar
     9    11    13   am
    10    13     7    1
    11     7     8    2
    12     7     9    2
    13     7     1    1
    14     1     2   ar
    15     2     3   ar
    16     3     4   ar
    17     4    22    1
    18    22    23    1
    19    23    24    1
    20    24    25    1
    21    25    26    1
    22    26    27    1
    23    27    28    1
    24    28    29    1
    25    29    30    1
    26    30    31    1
    27     4     5   ar
    28     5     6   ar
    29    21    16   ar
    30     6     1   ar
    31    31    26    1
    32    12    14    1
    33    13    15    1
@<TRIPOS>MOLECULE
*****
 31 33 0 0 0
SMALL
GASTEIGER

@<TRIPOS>ATOM
      1 C         140.7249  143.6022  162.6899 C.ar    1  UNL1        0.1255
      2 C         140.3043  142.1990  162.3673 C.ar    1  UNL1        0.0233
      3 C         139.7335  141.3214  163.4415 C.ar    1  UNL1        0.0383
      4 C         139.5833  141.8470  164.8384 C.ar    1  UNL1        0.1386
      5 C         140.0039  143.2502  165.1610 C.ar    1  UNL1        0.0383
      6 C         140.5747  144.1278  164.0868 C.ar    1  UNL1        0.0233
      7 S         141.2957  144.4799  161.6157 S.O2    1  UNL1        0.0768
      8 O         140.2365  145.5056  161.8909 O.2     1  UNL1       -0.1498
      9 O         142.3550  143.4541  161.3405 O.2     1  UNL1       -0.1498
     10 O         140.3476  144.1941  158.7839 O.2     1  UNL1       -0.2509
     11 C         141.3925  145.2146  159.1256 C.2     1  UNL1        0.3231
     12 N         141.9633  146.0923  158.0514 N.am    1  UNL1       -0.2671
     13 N         141.8665  145.3575  160.5416 N.am    1  UNL1       -0.1690
     14 H         142.6490  146.7621  158.2757 H       1  UNL1        0.1565
     15 H         142.5523  146.0273  160.7659 H       1  UNL1        0.1781
     16 C         141.4892  145.9494  156.6354 C.ar    1  UNL1        0.0516
     17 C         142.2967  145.1570  155.6505 C.ar    1  UNL1        0.0147
     18 C         141.8227  145.0142  154.2346 C.ar    1  UNL1        0.0013
     19 C         140.5411  145.6636  153.8036 C.ar    1  UNL1        0.0001
     20 C         139.7336  146.4560  154.7885 C.ar    1  UNL1        0.0013
     21 C         140.2077  146.5988  156.2044 C.ar    1  UNL1        0.0147
     22 O         139.0125  140.9693  165.9125 O.3     1  UNL1       -0.4754
     23 C         138.2208  139.7501  165.5430 C.3     1  UNL1        0.2068
     24 C         138.7766  138.3838  165.8155 C.3     1  UNL1        0.0646
     25 C         139.6277  137.7012  164.7860 C.3     1  UNL1        0.0759
     26 N         141.0368  138.1598  164.5541 N.3     1  UNL1       -0.2726
     27 C         141.6642  138.0010  163.2009 C.3     1  UNL1        0.0721
     28 C         143.0734  138.4597  162.9690 C.3     1  UNL1        0.0174
     29 C         143.8553  139.0771  164.0903 C.3     1  UNL1        0.0029
     30 C         143.2280  139.2359  165.4435 C.3     1  UNL1        0.0174
     31 C         141.8188  138.7773  165.6754 C.3     1  UNL1        0.0721
@<TRIPOS>BOND
     1    10    11    2
     2    11    12   am
     3    12    16    1
     4    16    17   ar
     5    17    18   ar
     6    18    19   ar
     7    19    20   ar
     8    20    21   ar
     9    11    13   am
    10    13     7    1
    11     7     8    2
    12     7     9    2
    13     7     1    1
    14     1     2   ar
    15     2     3   ar
    16     3     4   ar
    17     4    22    1
    18    22    23    1
    19    23    24    1
    20    24    25    1
    21    25    26    1
    22    26    27    1
    23    27    28    1
    24    28    29    1
    25    29    30    1
    26    30    31    1
    27     4     5   ar
    28     5     6   ar
    29    21    16   ar
    30     6     1   ar
    31    31    26    1
    32    12    14    1
    33    13    15    1
