@<TRIPOS>MOLECULE
*****
 21 22 0 0 0
SMALL
GASTEIGER

@<TRIPOS>ATOM
      1 C         138.7263  142.7745  164.1314 C.ar    1  UNL1        0.0284
      2 C         138.5278  144.2186  163.7777 C.ar    1  UNL1        0.0032
      3 C         139.7126  145.1300  163.6529 C.ar    1  UNL1        0.0368
      4 C         141.0960  144.5972  163.8816 C.ar    1  UNL1        0.1418
      5 C         141.2946  143.1531  164.2353 C.ar    1  UNL1        0.0741
      6 C         140.1097  142.2418  164.3601 C.ar    1  UNL1        0.1456
      7 O         142.2809  145.5086  163.7568 O.3     1  UNL1       -0.4713
      8 C         143.6000  144.9646  163.2942 C.3     1  UNL1        0.2525
      9 C         137.5415  141.8632  164.2562 C.3     1  UNL1        0.0987
     10 C         137.7127  140.8382  161.8750 C.3     1  UNL1        0.0861
     11 N         136.8788  141.3215  163.0244 N.3     1  UNL1       -0.2925
     12 H         136.3028  140.5341  163.3220 H       1  UNL1        0.1236
     13 O         140.3083  140.7976  164.7138 O.3     1  UNL1       -0.4536
     14 C         140.7560  140.4182  166.0942 C.ar    1  UNL1        0.1462
     15 C         142.1401  139.8827  166.3131 C.ar    1  UNL1        0.0384
     16 C         142.5878  139.5033  167.6935 C.ar    1  UNL1        0.0154
     17 C         141.6516  139.6593  168.8550 C.ar    1  UNL1        0.0684
     18 CL        142.0993  139.2799  170.2354 Cl      1  UNL1       -0.0814
     19 C         140.2676  140.1947  168.6362 C.ar    1  UNL1        0.0712
     20 CL        139.3314  140.3507  169.7977 Cl      1  UNL1       -0.0813
     21 C         139.8198  140.5742  167.2557 C.ar    1  UNL1        0.0497
@<TRIPOS>BOND
     1    10    11    1
     2    11     9    1
     3     9     1    1
     4     1     2   ar
     5     2     3   ar
     6     3     4   ar
     7     4     7    1
     8     7     8    1
     9     4     5   ar
    10     5     6   ar
    11     6    13    1
    12    13    14    1
    13    14    15   ar
    14    15    16   ar
    15    16    17   ar
    16    17    18    1
    17    17    19   ar
    18    19    20    1
    19    19    21   ar
    20     6     1   ar
    21    21    14   ar
    22    11    12    1
@<TRIPOS>MOLECULE
*****
 21 22 0 0 0
SMALL
GASTEIGER

@<TRIPOS>ATOM
      1 C         140.7542  144.3772  164.1732 C.ar    1  UNL1        0.0284
      2 C         141.7252  145.3360  163.5504 C.ar    1  UNL1        0.0032
      3 C         143.1177  144.8856  163.2218 C.ar    1  UNL1        0.0368
      4 C         143.5392  143.4764  163.5158 C.ar    1  UNL1        0.1418
      5 C         142.5682  142.5176  164.1386 C.ar    1  UNL1        0.0741
      6 C         141.1757  142.9681  164.4672 C.ar    1  UNL1        0.1456
      7 O         144.9317  143.0260  163.1871 O.3     1  UNL1       -0.4713
      8 C         145.3513  141.6151  163.4754 C.3     1  UNL1        0.2525
      9 C         139.3617  144.8276  164.5019 C.3     1  UNL1        0.0987
     10 C         137.8493  143.6315  162.7607 C.3     1  UNL1        0.0861
     11 N         138.1930  143.9415  164.1875 N.3     1  UNL1       -0.2925
     12 H         138.3678  143.0488  164.6489 H       1  UNL1        0.1236
     13 O         140.2047  142.0092  165.0900 O.3     1  UNL1       -0.4536
     14 C         140.2560  141.7420  166.5651 C.ar    1  UNL1        0.1462
     15 C         140.0804  140.3444  167.0807 C.ar    1  UNL1        0.0384
     16 C         140.1317  140.0772  168.5558 C.ar    1  UNL1        0.0154
     17 C         140.3585  141.2076  169.5154 C.ar    1  UNL1        0.0684
     18 CL        140.4098  140.9404  170.9904 Cl      1  UNL1       -0.0814
     19 C         140.5340  142.6052  168.9998 C.ar    1  UNL1        0.0712
     20 CL        140.7608  143.7356  169.9593 Cl      1  UNL1       -0.0813
     21 C         140.4827  142.8725  167.5246 C.ar    1  UNL1        0.0497
@<TRIPOS>BOND
     1    10    11    1
     2    11     9    1
     3     9     1    1
     4     1     2   ar
     5     2     3   ar
     6     3     4   ar
     7     4     7    1
     8     7     8    1
     9     4     5   ar
    10     5     6   ar
    11     6    13    1
    12    13    14    1
    13    14    15   ar
    14    15    16   ar
    15    16    17   ar
    16    17    18    1
    17    17    19   ar
    18    19    20    1
    19    19    21   ar
    20     6     1   ar
    21    21    14   ar
    22    11    12    1
@<TRIPOS>MOLECULE
*****
 21 22 0 0 0
SMALL
GASTEIGER

@<TRIPOS>ATOM
      1 C         138.2524  139.4995  162.8506 C.ar    1  UNL1        0.0284
      2 C         138.1559  140.3221  161.6000 C.ar    1  UNL1        0.0032
      3 C         137.9454  141.8044  161.6917 C.ar    1  UNL1        0.0368
      4 C         137.8313  142.4641  163.0339 C.ar    1  UNL1        0.1418
      5 C         137.9278  141.6415  164.2845 C.ar    1  UNL1        0.0741
      6 C         138.1383  140.1592  164.1928 C.ar    1  UNL1        0.1456
      7 O         137.6208  143.9465  163.1256 O.3     1  UNL1       -0.4713
      8 C         138.7927  144.8588  163.3361 C.3     1  UNL1        0.2525
      9 C         138.4629  138.0172  162.7589 C.3     1  UNL1        0.0987
     10 C         140.9226  137.2574  163.1085 C.3     1  UNL1        0.0861
     11 N         139.7463  137.4748  162.2034 N.3     1  UNL1       -0.2925
     12 H         139.5270  136.5716  161.7835 H       1  UNL1        0.1236
     13 O         138.2347  139.3366  165.4435 O.3     1  UNL1       -0.4536
     14 C         139.3661  139.5599  166.4027 C.ar    1  UNL1        0.1462
     15 C         140.7821  139.5504  165.9076 C.ar    1  UNL1        0.0384
     16 C         141.9135  139.7737  166.8668 C.ar    1  UNL1        0.0154
     17 C         141.6290  140.0066  168.3211 C.ar    1  UNL1        0.0684
     18 CL        142.7603  140.2299  169.2802 Cl      1  UNL1       -0.0814
     19 C         140.2131  140.0161  168.8161 C.ar    1  UNL1        0.0712
     20 CL        139.9286  140.2490  170.2704 Cl      1  UNL1       -0.0813
     21 C         139.0816  139.7928  167.8569 C.ar    1  UNL1        0.0497
@<TRIPOS>BOND
     1    10    11    1
     2    11     9    1
     3     9     1    1
     4     1     2   ar
     5     2     3   ar
     6     3     4   ar
     7     4     7    1
     8     7     8    1
     9     4     5   ar
    10     5     6   ar
    11     6    13    1
    12    13    14    1
    13    14    15   ar
    14    15    16   ar
    15    16    17   ar
    16    17    18    1
    17    17    19   ar
    18    19    20    1
    19    19    21   ar
    20     6     1   ar
    21    21    14   ar
    22    11    12    1
@<TRIPOS>MOLECULE
*****
 21 22 0 0 0
SMALL
GASTEIGER

@<TRIPOS>ATOM
      1 C         143.3962  143.6170  164.5327 C.ar    1  UNL1        0.0284
      2 C         143.2309  144.9857  163.9417 C.ar    1  UNL1        0.0032
      3 C         141.8629  145.4910  163.5910 C.ar    1  UNL1        0.0368
      4 C         140.6600  144.6277  163.8313 C.ar    1  UNL1        0.1418
      5 C         140.8253  143.2590  164.4223 C.ar    1  UNL1        0.0741
      6 C         142.1933  142.7536  164.7730 C.ar    1  UNL1        0.1456
      7 O         139.2919  145.1330  163.4806 O.3     1  UNL1       -0.4713
      8 C         138.1367  144.1793  163.4048 C.3     1  UNL1        0.2525
      9 C         144.7643  143.1116  164.8834 C.3     1  UNL1        0.0987
     10 C         145.2426  141.8618  162.6565 C.3     1  UNL1        0.0861
     11 N         145.3398  141.9356  164.1515 N.3     1  UNL1       -0.2925
     12 H         146.3323  141.9010  164.3841 H       1  UNL1        0.1236
     13 O         142.3585  141.3848  165.3640 O.3     1  UNL1       -0.4536
     14 C         141.1526  140.6017  165.7909 C.ar    1  UNL1        0.1462
     15 C         140.5206  140.8658  167.1254 C.ar    1  UNL1        0.0384
     16 C         139.3146  140.0827  167.5523 C.ar    1  UNL1        0.0154
     17 C         138.7406  139.0354  166.6448 C.ar    1  UNL1        0.0684
     18 CL        137.5346  138.2522  167.0717 Cl      1  UNL1       -0.0814
     19 C         139.3725  138.7712  165.3103 C.ar    1  UNL1        0.0712
     20 CL        138.7985  137.7239  164.4027 Cl      1  UNL1       -0.0813
     21 C         140.5786  139.5544  164.8833 C.ar    1  UNL1        0.0497
@<TRIPOS>BOND
     1    10    11    1
     2    11     9    1
     3     9     1    1
     4     1     2   ar
     5     2     3   ar
     6     3     4   ar
     7     4     7    1
     8     7     8    1
     9     4     5   ar
    10     5     6   ar
    11     6    13    1
    12    13    14    1
    13    14    15   ar
    14    15    16   ar
    15    16    17   ar
    16    17    18    1
    17    17    19   ar
    18    19    20    1
    19    19    21   ar
    20     6     1   ar
    21    21    14   ar
    22    11    12    1
@<TRIPOS>MOLECULE
*****
 21 22 0 0 0
SMALL
GASTEIGER

@<TRIPOS>ATOM
      1 C         142.9993  143.8711  164.3616 C.ar    1  UNL1        0.0284
      2 C         142.7185  145.1176  163.5759 C.ar    1  UNL1        0.0032
      3 C         141.3060  145.4809  163.2252 C.ar    1  UNL1        0.0368
      4 C         140.1744  144.5978  163.6603 C.ar    1  UNL1        0.1418
      5 C         140.4551  143.3513  164.4461 C.ar    1  UNL1        0.0741
      6 C         141.8676  142.9880  164.7967 C.ar    1  UNL1        0.1456
      7 O         138.7619  144.9612  163.3097 O.3     1  UNL1       -0.4713
      8 C         137.7714  143.8852  162.9761 C.3     1  UNL1        0.2525
      9 C         144.4117  143.5078  164.7123 C.3     1  UNL1        0.0987
     10 C         145.6966  141.7518  163.2926 C.3     1  UNL1        0.0861
     11 N         144.8964  142.1025  164.5119 N.3     1  UNL1       -0.2925
     12 H         145.4749  141.8726  165.3199 H       1  UNL1        0.1236
     13 O         142.1483  141.7415  165.5825 O.3     1  UNL1       -0.4536
     14 C         141.9461  141.7303  167.0688 C.ar    1  UNL1        0.1462
     15 C         143.0269  142.2379  167.9766 C.ar    1  UNL1        0.0384
     16 C         142.8247  142.2267  169.4628 C.ar    1  UNL1        0.0154
     17 C         141.5416  141.7079  170.0413 C.ar    1  UNL1        0.0684
     18 CL        141.3394  141.6967  171.5275 Cl      1  UNL1       -0.0814
     19 C         140.4608  141.2003  169.1335 C.ar    1  UNL1        0.0712
     20 CL        139.1778  140.6815  169.7120 Cl      1  UNL1       -0.0813
     21 C         140.6630  141.2115  167.6472 C.ar    1  UNL1        0.0497
@<TRIPOS>BOND
     1    10    11    1
     2    11     9    1
     3     9     1    1
     4     1     2   ar
     5     2     3   ar
     6     3     4   ar
     7     4     7    1
     8     7     8    1
     9     4     5   ar
    10     5     6   ar
    11     6    13    1
    12    13    14    1
    13    14    15   ar
    14    15    16   ar
    15    16    17   ar
    16    17    18    1
    17    17    19   ar
    18    19    20    1
    19    19    21   ar
    20     6     1   ar
    21    21    14   ar
    22    11    12    1
@<TRIPOS>MOLECULE
*****
 21 22 0 0 0
SMALL
GASTEIGER

@<TRIPOS>ATOM
      1 C         138.8792  143.2178  164.2745 C.ar    1  UNL1        0.0284
      2 C         137.6440  142.7652  163.5538 C.ar    1  UNL1        0.0032
      3 C         137.4493  141.3114  163.2395 C.ar    1  UNL1        0.0368
      4 C         138.4897  140.3103  163.6460 C.ar    1  UNL1        0.1418
      5 C         139.7249  140.7630  164.3667 C.ar    1  UNL1        0.0741
      6 C         139.9196  142.2167  164.6810 C.ar    1  UNL1        0.1456
      7 O         138.2950  138.8566  163.3317 O.3     1  UNL1       -0.4713
      8 C         138.0114  138.4252  161.9234 C.3     1  UNL1        0.2525
      9 C         139.0739  144.6715  164.5888 C.3     1  UNL1        0.0987
     10 C         140.5878  145.2908  162.5702 C.3     1  UNL1        0.0861
     11 N         140.2536  145.4087  164.0278 N.3     1  UNL1       -0.2925
     12 H         140.0982  146.3992  164.2151 H       1  UNL1        0.1236
     13 O         141.1548  142.6693  165.4018 O.3     1  UNL1       -0.4536
     14 C         141.3744  142.2768  166.8327 C.ar    1  UNL1        0.1462
     15 C         142.5102  141.3662  167.1948 C.ar    1  UNL1        0.0384
     16 C         142.7298  140.9737  168.6258 C.ar    1  UNL1        0.0154
     17 C         141.8137  141.4917  169.6947 C.ar    1  UNL1        0.0684
     18 CL        142.0334  141.0992  171.1256 Cl      1  UNL1       -0.0814
     19 C         140.6781  142.4022  169.3326 C.ar    1  UNL1        0.0712
     20 CL        139.7620  142.9202  170.4015 Cl      1  UNL1       -0.0813
     21 C         140.4584  142.7948  167.9016 C.ar    1  UNL1        0.0497
@<TRIPOS>BOND
     1    10    11    1
     2    11     9    1
     3     9     1    1
     4     1     2   ar
     5     2     3   ar
     6     3     4   ar
     7     4     7    1
     8     7     8    1
     9     4     5   ar
    10     5     6   ar
    11     6    13    1
    12    13    14    1
    13    14    15   ar
    14    15    16   ar
    15    16    17   ar
    16    17    18    1
    17    17    19   ar
    18    19    20    1
    19    19    21   ar
    20     6     1   ar
    21    21    14   ar
    22    11    12    1
@<TRIPOS>MOLECULE
*****
 21 22 0 0 0
SMALL
GASTEIGER

@<TRIPOS>ATOM
      1 C         139.5741  139.7920  167.5045 C.ar    1  UNL1        0.0284
      2 C         138.3016  139.0526  167.2146 C.ar    1  UNL1        0.0032
      3 C         138.1399  138.3182  165.9167 C.ar    1  UNL1        0.0368
      4 C         139.2506  138.3233  164.9086 C.ar    1  UNL1        0.1418
      5 C         140.5231  139.0627  165.1985 C.ar    1  UNL1        0.0741
      6 C         140.6848  139.7970  166.4964 C.ar    1  UNL1        0.1456
      7 O         139.0889  137.5889  163.6107 O.3     1  UNL1       -0.4713
      8 C         140.0770  137.7991  162.5019 C.3     1  UNL1        0.2525
      9 C         139.7358  140.5263  168.8024 C.3     1  UNL1        0.0987
     10 C         141.6959  139.4254  170.1046 C.3     1  UNL1        0.0861
     11 N         140.2475  139.8047  170.0137 N.3     1  UNL1       -0.2925
     12 H         140.0481  140.4003  170.8174 H       1  UNL1        0.1236
     13 O         141.9574  140.5365  166.7862 O.3     1  UNL1       -0.4536
     14 C         142.5326  141.4694  165.7622 C.ar    1  UNL1        0.1462
     15 C         141.7685  142.6920  165.3481 C.ar    1  UNL1        0.0384
     16 C         142.3437  143.6249  164.3240 C.ar    1  UNL1        0.0154
     17 C         143.6831  143.3352  163.7140 C.ar    1  UNL1        0.0684
     18 CL        144.2583  144.2681  162.6899 Cl      1  UNL1       -0.0814
     19 C         144.4472  142.1127  164.1280 C.ar    1  UNL1        0.0712
     20 CL        145.7866  141.8231  163.5179 Cl      1  UNL1       -0.0813
     21 C         143.8720  141.1797  165.1521 C.ar    1  UNL1        0.0497
@<TRIPOS>BOND
     1    10    11    1
     2    11     9    1
     3     9     1    1
     4     1     2   ar
     5     2     3   ar
     6     3     4   ar
     7     4     7    1
     8     7     8    1
     9     4     5   ar
    10     5     6   ar
    11     6    13    1
    12    13    14    1
    13    14    15   ar
    14    15    16   ar
    15    16    17   ar
    16    17    18    1
    17    17    19   ar
    18    19    20    1
    19    19    21   ar
    20     6     1   ar
    21    21    14   ar
    22    11    12    1
@<TRIPOS>MOLECULE
*****
 21 22 0 0 0
SMALL
GASTEIGER

@<TRIPOS>ATOM
      1 C         138.4991  141.3034  164.3563 C.ar    1  UNL1        0.0284
      2 C         137.4804  142.0834  163.5793 C.ar    1  UNL1        0.0032
      3 C         137.7904  143.4796  163.1267 C.ar    1  UNL1        0.0368
      4 C         139.1190  144.0956  163.4511 C.ar    1  UNL1        0.1418
      5 C         140.1376  143.3155  164.2281 C.ar    1  UNL1        0.0741
      6 C         139.8277  141.9194  164.6807 C.ar    1  UNL1        0.1456
      7 O         139.4289  145.4917  162.9985 O.3     1  UNL1       -0.4713
      8 C         140.0513  145.7233  161.6536 C.3     1  UNL1        0.2525
      9 C         138.1892  139.9073  164.8088 C.3     1  UNL1        0.0987
     10 C         138.9317  137.9656  163.2504 C.3     1  UNL1        0.0861
     11 N         139.1347  138.7877  164.4885 N.3     1  UNL1       -0.2925
     12 H         140.0655  139.1991  164.4195 H       1  UNL1        0.1236
     13 O         140.8464  141.1393  165.4577 O.3     1  UNL1       -0.4536
     14 C         141.3610  141.6694  166.7631 C.ar    1  UNL1        0.1462
     15 C         142.8385  141.7737  167.0002 C.ar    1  UNL1        0.0384
     16 C         143.3530  142.3038  168.3057 C.ar    1  UNL1        0.0154
     17 C         142.3901  142.7296  169.3741 C.ar    1  UNL1        0.0684
     18 CL        142.9046  143.2597  170.6795 Cl      1  UNL1       -0.0814
     19 C         140.9127  142.6253  169.1370 C.ar    1  UNL1        0.0712
     20 CL        139.9497  143.0512  170.2054 Cl      1  UNL1       -0.0813
     21 C         140.3980  142.0952  167.8315 C.ar    1  UNL1        0.0497
@<TRIPOS>BOND
     1    10    11    1
     2    11     9    1
     3     9     1    1
     4     1     2   ar
     5     2     3   ar
     6     3     4   ar
     7     4     7    1
     8     7     8    1
     9     4     5   ar
    10     5     6   ar
    11     6    13    1
    12    13    14    1
    13    14    15   ar
    14    15    16   ar
    15    16    17   ar
    16    17    18    1
    17    17    19   ar
    18    19    20    1
    19    19    21   ar
    20     6     1   ar
    21    21    14   ar
    22    11    12    1
@<TRIPOS>MOLECULE
*****
 21 22 0 0 0
SMALL
GASTEIGER

@<TRIPOS>ATOM
      1 C         141.3367  144.5528  163.3930 C.ar    1  UNL1        0.0284
      2 C         142.4968  145.3731  163.8740 C.ar    1  UNL1        0.0032
      3 C         143.8036  144.7093  164.1930 C.ar    1  UNL1        0.0368
      4 C         143.9503  143.2254  164.0310 C.ar    1  UNL1        0.1418
      5 C         142.7902  142.4051  163.5500 C.ar    1  UNL1        0.0741
      6 C         141.4834  143.0689  163.2310 C.ar    1  UNL1        0.1456
      7 O         145.2571  142.5616  164.3500 O.3     1  UNL1       -0.4713
      8 C         145.5925  141.2335  163.7390 C.3     1  UNL1        0.2525
      9 C         140.0299  145.2166  163.0740 C.3     1  UNL1        0.0987
     10 C         138.6798  144.8856  165.2688 C.3     1  UNL1        0.0861
     11 N         138.7772  144.7824  163.7756 N.3     1  UNL1       -0.2925
     12 H         138.0157  145.3418  163.3914 H       1  UNL1        0.1236
     13 O         140.3233  142.2486  162.7499 O.3     1  UNL1       -0.4536
     14 C         139.7734  141.1501  163.6106 C.ar    1  UNL1        0.1462
     15 C         139.5054  141.3998  165.0653 C.ar    1  UNL1        0.0384
     16 C         138.9555  140.3013  165.9259 C.ar    1  UNL1        0.0154
     17 C         138.6736  138.9530  165.3321 C.ar    1  UNL1        0.0684
     18 CL        138.1237  137.8545  166.1928 Cl      1  UNL1       -0.0814
     19 C         138.9416  138.7032  163.8775 C.ar    1  UNL1        0.0712
     20 CL        138.6596  137.3550  163.2837 Cl      1  UNL1       -0.0813
     21 C         139.4915  139.8018  163.0168 C.ar    1  UNL1        0.0497
@<TRIPOS>BOND
     1    10    11    1
     2    11     9    1
     3     9     1    1
     4     1     2   ar
     5     2     3   ar
     6     3     4   ar
     7     4     7    1
     8     7     8    1
     9     4     5   ar
    10     5     6   ar
    11     6    13    1
    12    13    14    1
    13    14    15   ar
    14    15    16   ar
    15    16    17   ar
    16    17    18    1
    17    17    19   ar
    18    19    20    1
    19    19    21   ar
    20     6     1   ar
    21    21    14   ar
    22    11    12    1
