@<TRIPOS>MOLECULE
*****
 22 24 0 0 0
SMALL
GASTEIGER

@<TRIPOS>ATOM
      1 C         139.0157  142.4656  163.6072 C.ar    1  UNL1        0.1030
      2 C         137.8400  143.1357  162.9603 C.ar    1  UNL1        0.1180
      3 N         137.9652  144.5401  162.4485 N.ar    1  UNL1       -0.2395
      4 C         139.2662  145.2744  162.5836 C.ar    1  UNL1        0.1149
      5 C         140.4420  144.6043  163.2305 C.ar    1  UNL1        0.0940
      6 N         140.3167  143.1998  163.7424 N.ar    1  UNL1       -0.2450
      7 C         138.8639  139.9115  163.1560 C.ar    1  UNL1        0.1424
      8 C         138.7387  138.5071  163.6678 C.ar    1  UNL1        0.0665
      9 C         138.6399  138.2524  165.1427 C.ar    1  UNL1        0.1432
     10 F         138.5147  136.8479  165.6545 F       1  UNL1       -0.2041
     11 C         138.6665  139.4020  166.1058 C.ar    1  UNL1        0.0299
     12 C         138.7917  140.8064  165.5940 C.ar    1  UNL1        0.0069
     13 C         138.8905  141.0611  164.1190 C.ar    1  UNL1        0.0533
     14 C         137.7598  139.9771  160.8051 C.3     1  UNL1        0.2525
     15 O         138.9627  140.1662  161.6811 O.3     1  UNL1       -0.4713
     16 C         141.7430  145.3385  163.3657 C.3     1  UNL1        0.1168
     17 N         142.8645  145.0594  162.4095 N.3     1  UNL1       -0.2924
     18 H         143.3182  145.9528  162.2189 H       1  UNL1        0.1236
     19 C         143.9493  144.0946  162.7870 C.3     1  UNL1        0.0688
     20 C         144.0724  143.6219  164.2052 C.3     1  UNL1        0.0158
     21 C         143.6557  142.6908  165.3049 C.3     1  UNL1        0.0014
     22 C         144.7023  143.7341  165.5619 C.3     1  UNL1        0.0014
@<TRIPOS>BOND
     1    14    15    1
     2    15     7    1
     3     7     8   ar
     4     8     9   ar
     5     9    10    1
     6     9    11   ar
     7    11    12   ar
     8    12    13   ar
     9    13     1    1
    10     1     2   ar
    11     2     3   ar
    12     3     4   ar
    13     4     5   ar
    14     5    16    1
    15    16    17    1
    16    17    19    1
    17    19    20    1
    18    20    21    1
    19    21    22    1
    20     5     6   ar
    21    13     7   ar
    22     6     1   ar
    23    22    20    1
    24    17    18    1
@<TRIPOS>MOLECULE
*****
 22 24 0 0 0
SMALL
GASTEIGER

@<TRIPOS>ATOM
      1 C         139.8441  140.0217  165.9640 C.ar    1  UNL1        0.1030
      2 C         140.8264  138.9276  165.6672 C.ar    1  UNL1        0.1180
      3 N         140.7932  138.2296  164.3399 N.ar    1  UNL1       -0.2395
      4 C         139.7776  138.6258  163.3094 C.ar    1  UNL1        0.1149
      5 C         138.7954  139.7198  163.6062 C.ar    1  UNL1        0.0940
      6 N         138.8286  140.4178  164.9336 N.ar    1  UNL1       -0.2450
      7 C         140.4826  142.0874  167.4046 C.ar    1  UNL1        0.1424
      8 C         140.5158  142.7853  168.7319 C.ar    1  UNL1        0.0665
      9 C         139.9438  142.1154  169.9460 C.ar    1  UNL1        0.1432
     10 F         139.9771  142.8133  171.2734 F       1  UNL1       -0.2041
     11 C         139.3386  140.7476  169.8328 C.ar    1  UNL1        0.0299
     12 C         139.3054  140.0497  168.5055 C.ar    1  UNL1        0.0069
     13 C         139.8774  140.7196  167.2914 C.ar    1  UNL1        0.0533
     14 C         142.5120  142.6088  165.8685 C.3     1  UNL1        0.2525
     15 O         141.0545  142.7573  166.1905 O.3     1  UNL1       -0.4713
     16 C         137.7799  140.1160  162.5758 C.3     1  UNL1        0.1168
     17 N         137.0463  141.4177  162.7075 N.3     1  UNL1       -0.2924
     18 H         136.7204  141.4757  163.6723 H       1  UNL1        0.1236
     19 C         137.7498  142.7086  162.4097 C.3     1  UNL1        0.0688
     20 C         138.1138  143.6397  163.5280 C.3     1  UNL1        0.0158
     21 C         137.8848  144.1507  164.9195 C.3     1  UNL1        0.0014
     22 C         138.9733  144.7414  164.0733 C.3     1  UNL1        0.0014
@<TRIPOS>BOND
     1    14    15    1
     2    15     7    1
     3     7     8   ar
     4     8     9   ar
     5     9    10    1
     6     9    11   ar
     7    11    12   ar
     8    12    13   ar
     9    13     1    1
    10     1     2   ar
    11     2     3   ar
    12     3     4   ar
    13     4     5   ar
    14     5    16    1
    15    16    17    1
    16    17    19    1
    17    19    20    1
    18    20    21    1
    19    21    22    1
    20     5     6   ar
    21    13     7   ar
    22     6     1   ar
    23    22    20    1
    24    17    18    1
@<TRIPOS>MOLECULE
*****
 22 24 0 0 0
SMALL
GASTEIGER

@<TRIPOS>ATOM
      1 C         142.7472  139.6115  165.5680 C.ar    1  UNL1        0.1030
      2 C         142.3678  138.5456  164.5832 C.ar    1  UNL1        0.1180
      3 N         143.0965  138.4380  163.2765 N.ar    1  UNL1       -0.2395
      4 C         144.2048  139.3964  162.9547 C.ar    1  UNL1        0.1149
      5 C         144.5841  140.4623  163.9395 C.ar    1  UNL1        0.0940
      6 N         143.8553  140.5698  165.2462 N.ar    1  UNL1       -0.2450
      7 C         140.5917  140.1814  166.9018 C.ar    1  UNL1        0.1424
      8 C         139.8629  140.2889  168.2085 C.ar    1  UNL1        0.0665
      9 C         140.5609  139.9342  169.4879 C.ar    1  UNL1        0.1432
     10 F         139.8321  140.0417  170.7946 F       1  UNL1       -0.2041
     11 C         141.9876  139.4719  169.4607 C.ar    1  UNL1        0.0299
     12 C         142.7163  139.3643  168.1541 C.ar    1  UNL1        0.0069
     13 C         142.0184  139.7191  166.8747 C.ar    1  UNL1        0.0533
     14 C         138.6889  139.7573  165.1844 C.3     1  UNL1        0.2525
     15 O         139.8937  140.5361  165.6224 O.3     1  UNL1       -0.4713
     16 C         145.6923  141.4206  163.6177 C.3     1  UNL1        0.1168
     17 N         145.6838  142.1674  162.3169 N.3     1  UNL1       -0.2924
     18 H         145.6951  141.4672  161.5753 H       1  UNL1        0.1236
     19 C         144.5628  143.1132  162.0023 C.3     1  UNL1        0.0688
     20 C         144.0113  144.0056  163.0744 C.3     1  UNL1        0.0158
     21 C         143.9987  144.4664  164.5018 C.3     1  UNL1        0.0014
     22 C         143.0685  145.0903  163.5040 C.3     1  UNL1        0.0014
@<TRIPOS>BOND
     1    14    15    1
     2    15     7    1
     3     7     8   ar
     4     8     9   ar
     5     9    10    1
     6     9    11   ar
     7    11    12   ar
     8    12    13   ar
     9    13     1    1
    10     1     2   ar
    11     2     3   ar
    12     3     4   ar
    13     4     5   ar
    14     5    16    1
    15    16    17    1
    16    17    19    1
    17    19    20    1
    18    20    21    1
    19    21    22    1
    20     5     6   ar
    21    13     7   ar
    22     6     1   ar
    23    22    20    1
    24    17    18    1
@<TRIPOS>MOLECULE
*****
 22 24 0 0 0
SMALL
GASTEIGER

@<TRIPOS>ATOM
      1 C         141.9523  141.3715  164.7701 C.ar    1  UNL1        0.1030
      2 C         143.2567  141.4191  165.5091 C.ar    1  UNL1        0.1180
      3 N         144.2118  142.5513  165.2727 N.ar    1  UNL1       -0.2395
      4 C         143.8624  143.6360  164.2972 C.ar    1  UNL1        0.1149
      5 C         142.5579  143.5884  163.5582 C.ar    1  UNL1        0.0940
      6 N         141.6029  142.4562  163.7947 N.ar    1  UNL1       -0.2450
      7 C         141.3872  138.8392  164.6356 C.ar    1  UNL1        0.1424
      8 C         140.4322  137.7070  164.8720 C.ar    1  UNL1        0.0665
      9 C         139.0871  137.9749  165.4794 C.ar    1  UNL1        0.1432
     10 F         138.1320  136.8426  165.7159 F       1  UNL1       -0.2041
     11 C         138.6970  139.3749  165.8504 C.ar    1  UNL1        0.0299
     12 C         139.6521  140.5071  165.6139 C.ar    1  UNL1        0.0069
     13 C         140.9972  140.2393  165.0065 C.ar    1  UNL1        0.0533
     14 C         142.8424  138.2230  162.5734 C.3     1  UNL1        0.2525
     15 O         142.7324  138.5713  164.0282 O.3     1  UNL1       -0.4713
     16 C         142.2085  144.6731  162.5828 C.3     1  UNL1        0.1168
     17 N         141.2169  145.7324  162.9627 N.3     1  UNL1       -0.2924
     18 H         141.4142  146.5440  162.3772 H       1  UNL1        0.1236
     19 C         139.7465  145.4604  162.8445 C.3     1  UNL1        0.0688
     20 C         139.0041  144.8394  163.9904 C.3     1  UNL1        0.0158
     21 C         138.1184  143.7556  164.5297 C.3     1  UNL1        0.0014
     22 C         138.6040  144.8477  165.4360 C.3     1  UNL1        0.0014
@<TRIPOS>BOND
     1    14    15    1
     2    15     7    1
     3     7     8   ar
     4     8     9   ar
     5     9    10    1
     6     9    11   ar
     7    11    12   ar
     8    12    13   ar
     9    13     1    1
    10     1     2   ar
    11     2     3   ar
    12     3     4   ar
    13     4     5   ar
    14     5    16    1
    15    16    17    1
    16    17    19    1
    17    19    20    1
    18    20    21    1
    19    21    22    1
    20     5     6   ar
    21    13     7   ar
    22     6     1   ar
    23    22    20    1
    24    17    18    1
@<TRIPOS>MOLECULE
*****
 22 24 0 0 0
SMALL
GASTEIGER

@<TRIPOS>ATOM
      1 C         139.8483  139.3650  165.5869 C.ar    1  UNL1        0.1030
      2 C         140.1957  138.0085  165.0491 C.ar    1  UNL1        0.1180
      3 N         139.6648  137.5717  163.7160 N.ar    1  UNL1       -0.2395
      4 C         138.7865  138.4915  162.9205 C.ar    1  UNL1        0.1149
      5 C         138.4391  139.8480  163.4583 C.ar    1  UNL1        0.0940
      6 N         138.9700  140.2848  164.7915 N.ar    1  UNL1       -0.2450
      7 C         141.8357  140.1238  167.0785 C.ar    1  UNL1        0.1424
      8 C         142.3666  140.5606  168.4116 C.ar    1  UNL1        0.0665
      9 C         141.4410  140.6753  169.5864 C.ar    1  UNL1        0.1432
     10 F         141.9720  141.1121  170.9197 F       1  UNL1       -0.2041
     11 C         139.9846  140.3533  169.4281 C.ar    1  UNL1        0.0299
     12 C         139.4537  139.9165  168.0950 C.ar    1  UNL1        0.0069
     13 C         140.3793  139.8018  166.9201 C.ar    1  UNL1        0.0533
     14 C         143.0975  141.2250  165.0922 C.3     1  UNL1        0.2525
     15 O         142.7612  140.0091  165.9036 O.3     1  UNL1       -0.4713
     16 C         137.5608  140.7677  162.6629 C.3     1  UNL1        0.1168
     17 N         137.0110  142.0121  163.2947 N.3     1  UNL1       -0.2924
     18 H         136.8858  141.8083  164.2863 H       1  UNL1        0.1236
     19 C         137.7785  143.2981  163.2104 C.3     1  UNL1        0.0688
     20 C         138.4322  143.8632  164.4365 C.3     1  UNL1        0.0158
     21 C         139.5064  143.8011  165.4816 C.3     1  UNL1        0.0014
     22 C         138.4901  144.9039  165.5152 C.3     1  UNL1        0.0014
@<TRIPOS>BOND
     1    14    15    1
     2    15     7    1
     3     7     8   ar
     4     8     9   ar
     5     9    10    1
     6     9    11   ar
     7    11    12   ar
     8    12    13   ar
     9    13     1    1
    10     1     2   ar
    11     2     3   ar
    12     3     4   ar
    13     4     5   ar
    14     5    16    1
    15    16    17    1
    16    17    19    1
    17    19    20    1
    18    20    21    1
    19    21    22    1
    20     5     6   ar
    21    13     7   ar
    22     6     1   ar
    23    22    20    1
    24    17    18    1
@<TRIPOS>MOLECULE
*****
 22 24 0 0 0
SMALL
GASTEIGER

@<TRIPOS>ATOM
      1 C         139.8213  142.9543  165.3076 C.ar    1  UNL1        0.1030
      2 C         139.4538  144.3494  164.8968 C.ar    1  UNL1        0.1180
      3 N         138.4126  144.5703  163.8399 N.ar    1  UNL1       -0.2395
      4 C         137.7390  143.3961  163.1936 C.ar    1  UNL1        0.1149
      5 C         138.1065  142.0011  163.6043 C.ar    1  UNL1        0.0940
      6 N         139.1477  141.7802  164.6614 N.ar    1  UNL1       -0.2450
      7 C         142.2889  142.4861  165.9722 C.ar    1  UNL1        0.1424
      8 C         143.3300  142.2653  167.0292 C.ar    1  UNL1        0.0665
      9 C         142.9447  142.2917  168.4786 C.ar    1  UNL1        0.1432
     10 F         143.9859  142.0708  169.5356 F       1  UNL1       -0.2041
     11 C         141.5182  142.5390  168.8710 C.ar    1  UNL1        0.0299
     12 C         140.4771  142.7599  167.8140 C.ar    1  UNL1        0.0069
     13 C         140.8625  142.7334  166.3646 C.ar    1  UNL1        0.0533
     14 C         142.7711  141.1510  163.7962 C.3     1  UNL1        0.2525
     15 O         142.6743  142.4597  164.5228 O.3     1  UNL1       -0.4713
     16 C         137.4329  140.8269  162.9581 C.3     1  UNL1        0.1168
     17 N         138.2258  139.8864  162.0998 N.3     1  UNL1       -0.2924
     18 H         139.1715  140.2645  162.0446 H       1  UNL1        0.1236
     19 C         138.3581  138.4444  162.4914 C.3     1  UNL1        0.0688
     20 C         138.9406  138.0797  163.8246 C.3     1  UNL1        0.0158
     21 C         138.7787  137.8816  165.3026 C.3     1  UNL1        0.0014
     22 C         140.1114  137.6461  164.6559 C.3     1  UNL1        0.0014
@<TRIPOS>BOND
     1    14    15    1
     2    15     7    1
     3     7     8   ar
     4     8     9   ar
     5     9    10    1
     6     9    11   ar
     7    11    12   ar
     8    12    13   ar
     9    13     1    1
    10     1     2   ar
    11     2     3   ar
    12     3     4   ar
    13     4     5   ar
    14     5    16    1
    15    16    17    1
    16    17    19    1
    17    19    20    1
    18    20    21    1
    19    21    22    1
    20     5     6   ar
    21    13     7   ar
    22     6     1   ar
    23    22    20    1
    24    17    18    1
@<TRIPOS>MOLECULE
*****
 22 24 0 0 0
SMALL
GASTEIGER

@<TRIPOS>ATOM
      1 C         140.6783  142.8916  165.6967 C.ar    1  UNL1        0.1030
      2 C         139.7542  143.9608  165.1939 C.ar    1  UNL1        0.1180
      3 N         140.0859  144.7085  163.9366 N.ar    1  UNL1       -0.2395
      4 C         141.3419  144.3870  163.1820 C.ar    1  UNL1        0.1149
      5 C         142.2660  143.3179  163.6848 C.ar    1  UNL1        0.0940
      6 N         141.9342  142.5702  164.9422 N.ar    1  UNL1       -0.2450
      7 C         139.8036  140.7479  166.8754 C.ar    1  UNL1        0.1424
      8 C         139.4719  140.0002  168.1327 C.ar    1  UNL1        0.0665
      9 C         139.6829  140.6487  169.4687 C.ar    1  UNL1        0.1432
     10 F         139.3511  139.9010  170.7261 F       1  UNL1       -0.2041
     11 C         140.2258  142.0447  169.5474 C.ar    1  UNL1        0.0299
     12 C         140.5576  142.7924  168.2901 C.ar    1  UNL1        0.0069
     13 C         140.3465  142.1439  166.9541 C.ar    1  UNL1        0.0533
     14 C         138.2402  140.1390  164.8918 C.3     1  UNL1        0.2525
     15 O         139.5925  140.0994  165.5394 O.3     1  UNL1       -0.4713
     16 C         143.5219  142.9964  162.9303 C.3     1  UNL1        0.1168
     17 N         144.8415  142.9793  163.6433 N.3     1  UNL1       -0.2924
     18 H         144.6557  143.2353  164.6130 H       1  UNL1        0.1236
     19 C         145.6599  141.7226  163.6764 C.3     1  UNL1        0.0688
     20 C         144.9858  140.3927  163.8402 C.3     1  UNL1        0.0158
     21 C         144.5482  139.2574  164.7175 C.3     1  UNL1        0.0014
     22 C         144.2559  139.2245  163.2466 C.3     1  UNL1        0.0014
@<TRIPOS>BOND
     1    14    15    1
     2    15     7    1
     3     7     8   ar
     4     8     9   ar
     5     9    10    1
     6     9    11   ar
     7    11    12   ar
     8    12    13   ar
     9    13     1    1
    10     1     2   ar
    11     2     3   ar
    12     3     4   ar
    13     4     5   ar
    14     5    16    1
    15    16    17    1
    16    17    19    1
    17    19    20    1
    18    20    21    1
    19    21    22    1
    20     5     6   ar
    21    13     7   ar
    22     6     1   ar
    23    22    20    1
    24    17    18    1
@<TRIPOS>MOLECULE
*****
 22 24 0 0 0
SMALL
GASTEIGER

@<TRIPOS>ATOM
      1 C         141.1268  142.0158  164.8283 C.ar    1  UNL1        0.1030
      2 C         141.7813  143.3628  164.7436 C.ar    1  UNL1        0.1180
      3 N         141.0065  144.5424  164.2355 N.ar    1  UNL1       -0.2395
      4 C         139.5772  144.3751  163.8121 C.ar    1  UNL1        0.1149
      5 C         138.9228  143.0281  163.8968 C.ar    1  UNL1        0.0940
      6 N         139.6976  141.8484  164.4049 N.ar    1  UNL1       -0.2450
      7 C         142.7421  140.0280  164.3929 C.ar    1  UNL1        0.1424
      8 C         143.5169  138.8484  164.9010 C.ar    1  UNL1        0.0665
      9 C         143.4511  138.4769  166.3528 C.ar    1  UNL1        0.1432
     10 F         144.2259  137.2973  166.8610 F       1  UNL1       -0.2041
     11 C         142.6105  139.2850  167.2964 C.ar    1  UNL1        0.0299
     12 C         141.8358  140.4646  166.7882 C.ar    1  UNL1        0.0069
     13 C         141.9016  140.8361  165.3365 C.ar    1  UNL1        0.0533
     14 C         141.9039  139.7247  161.9525 C.3     1  UNL1        0.2525
     15 O         142.8079  140.3995  162.9411 O.3     1  UNL1       -0.4713
     16 C         137.4936  142.8607  163.4734 C.3     1  UNL1        0.1168
     17 N         136.9504  141.4912  163.1913 N.3     1  UNL1       -0.2924
     18 H         135.9645  141.6079  162.9575 H       1  UNL1        0.1236
     19 C         137.5567  140.6530  162.1051 C.3     1  UNL1        0.0688
     20 C         138.1087  139.2955  162.4250 C.3     1  UNL1        0.0158
     21 C         138.3404  137.8640  162.0414 C.3     1  UNL1        0.0014
     22 C         138.8329  138.3756  163.3626 C.3     1  UNL1        0.0014
@<TRIPOS>BOND
     1    14    15    1
     2    15     7    1
     3     7     8   ar
     4     8     9   ar
     5     9    10    1
     6     9    11   ar
     7    11    12   ar
     8    12    13   ar
     9    13     1    1
    10     1     2   ar
    11     2     3   ar
    12     3     4   ar
    13     4     5   ar
    14     5    16    1
    15    16    17    1
    16    17    19    1
    17    19    20    1
    18    20    21    1
    19    21    22    1
    20     5     6   ar
    21    13     7   ar
    22     6     1   ar
    23    22    20    1
    24    17    18    1
@<TRIPOS>MOLECULE
*****
 22 24 0 0 0
SMALL
GASTEIGER

@<TRIPOS>ATOM
      1 C         139.3900  140.2407  165.3697 C.ar    1  UNL1        0.1030
      2 C         138.2387  141.0425  164.8392 C.ar    1  UNL1        0.1180
      3 N         137.6759  140.7396  163.4823 N.ar    1  UNL1       -0.2395
      4 C         138.2643  139.6347  162.6557 C.ar    1  UNL1        0.1149
      5 C         139.4156  138.8328  163.1863 C.ar    1  UNL1        0.0940
      6 N         139.9785  139.1358  164.5433 N.ar    1  UNL1       -0.2450
      7 C         141.1251  141.4695  166.8629 C.ar    1  UNL1        0.1424
      8 C         141.6879  141.7724  168.2199 C.ar    1  UNL1        0.0665
      9 C         141.0784  141.1495  169.4407 C.ar    1  UNL1        0.1432
     10 F         141.6413  141.4525  170.7978 F       1  UNL1       -0.2041
     11 C         139.9062  140.2237  169.3046 C.ar    1  UNL1        0.0299
     12 C         139.3434  139.9207  167.9477 C.ar    1  UNL1        0.0069
     13 C         139.9529  140.5436  166.7268 C.ar    1  UNL1        0.0533
     14 C         143.1448  142.6017  165.6844 C.3     1  UNL1        0.2525
     15 O         141.7346  142.0924  165.6420 O.3     1  UNL1       -0.4713
     16 C         140.0041  137.7280  162.3598 C.3     1  UNL1        0.1168
     17 N         141.3613  137.1834  162.6932 N.3     1  UNL1       -0.2924
     18 H         141.4502  136.2936  162.2026 H       1  UNL1        0.1236
     19 C         142.5898  137.9810  162.3694 C.3     1  UNL1        0.0688
     20 C         143.3536  138.6607  163.4669 C.3     1  UNL1        0.0158
     21 C         144.4665  139.5645  163.9080 C.3     1  UNL1        0.0014
     22 C         143.5637  138.9343  164.9266 C.3     1  UNL1        0.0014
@<TRIPOS>BOND
     1    14    15    1
     2    15     7    1
     3     7     8   ar
     4     8     9   ar
     5     9    10    1
     6     9    11   ar
     7    11    12   ar
     8    12    13   ar
     9    13     1    1
    10     1     2   ar
    11     2     3   ar
    12     3     4   ar
    13     4     5   ar
    14     5    16    1
    15    16    17    1
    16    17    19    1
    17    19    20    1
    18    20    21    1
    19    21    22    1
    20     5     6   ar
    21    13     7   ar
    22     6     1   ar
    23    22    20    1
    24    17    18    1
