@<TRIPOS>MOLECULE
*****
 29 32 0 0 0
SMALL
GASTEIGER

@<TRIPOS>ATOM
      1 C         141.4501  142.0872  166.2622 C.2     1  UNL1        0.0020
      2 C         140.9571  142.5229  167.6103 C.2     1  UNL1        0.0130
      3 C         141.2343  141.6790  168.8190 C.3     1  UNL1        0.1542
      4 C         140.4641  142.9586  168.9583 C.3     1  UNL1        0.0614
      5 C         139.9711  143.3942  170.3063 C.3     1  UNL1        0.0725
      6 N         140.2484  142.5503  171.5150 N.3     1  UNL1       -0.2972
      7 C         141.0185  141.2707  171.3757 C.3     1  UNL1        0.0725
      8 C         141.5115  140.8350  170.0277 C.3     1  UNL1        0.0614
      9 O         142.0045  140.3993  168.6796 O.3     1  UNL1       -0.4785
     10 C         142.4974  139.9636  167.3316 C.ar    1  UNL1        0.1386
     11 C         143.2676  138.6840  167.1923 C.ar    1  UNL1        0.0369
     12 C         143.7606  138.2483  165.8443 C.ar    1  UNL1        0.0031
     13 C         143.4834  139.0922  164.6356 C.ar    1  UNL1        0.0002
     14 C         142.7132  140.3718  164.7749 C.ar    1  UNL1        0.0030
     15 C         142.2202  140.8076  166.1229 C.ar    1  UNL1        0.0338
     16 H         139.3435  142.3070  171.9180 H       1  UNL1        0.1233
     17 C         140.6184  144.6189  162.6362 C.ar    1  UNL1        0.0536
     18 C         139.5861  143.6466  163.1248 C.ar    1  UNL1        0.0045
     19 C         139.8633  142.8027  164.3335 C.ar    1  UNL1        0.0001
     20 C         141.1728  142.9311  165.0535 C.ar    1  UNL1       -0.0001
     21 C         142.2053  143.9035  164.5649 C.ar    1  UNL1        0.0001
     22 C         141.9281  144.7474  163.3562 C.ar    1  UNL1        0.0045
     23 N         140.7462  144.9796  160.0664 N.am    1  UNL1       -0.2761
     24 C         140.3412  145.4628  161.4275 C.2     1  UNL1        0.2490
     25 O         139.6590  146.7901  161.5798 O.2     1  UNL1       -0.2699
     26 C         141.4305  145.8235  157.7064 C.3     1  UNL1        0.0233
     27 C         140.4690  145.8235  158.8577 C.3     1  UNL1        0.0938
     28 C         141.4284  143.6524  159.9140 C.3     1  UNL1        0.0938
     29 C         140.6305  142.4369  159.5458 C.3     1  UNL1        0.0233
@<TRIPOS>BOND
     1    26    27    1
     2    27    23    1
     3    23    28    1
     4    28    29    1
     5    23    24   am
     6    24    25    2
     7    24    17    1
     8    17    18   ar
     9    18    19   ar
    10    19    20   ar
    11    20     1    1
    12     1     2    2
    13     2     3    1
    14     3     4    1
    15     4     5    1
    16     5     6    1
    17     6     7    1
    18     7     8    1
    19     3     9    1
    20     9    10    1
    21    10    11   ar
    22    11    12   ar
    23    12    13   ar
    24    13    14   ar
    25    14    15   ar
    26    20    21   ar
    27    21    22   ar
    28    22    17   ar
    29    15     1    1
    30     8     3    1
    31    15    10   ar
    32     6    16    1
@<TRIPOS>MOLECULE
*****
 29 32 0 0 0
SMALL
GASTEIGER

@<TRIPOS>ATOM
      1 C         139.8092  141.9351  165.7850 C.2     1  UNL1        0.0020
      2 C         140.1807  142.4517  167.1434 C.2     1  UNL1        0.0130
      3 C         140.1531  141.5328  168.3287 C.3     1  UNL1        0.1542
      4 C         140.5522  142.9683  168.5018 C.3     1  UNL1        0.0614
      5 C         140.9237  143.4848  169.8601 C.3     1  UNL1        0.0725
      6 N         140.8961  142.5658  171.0454 N.3     1  UNL1       -0.2972
      7 C         140.4969  141.1304  170.8722 C.3     1  UNL1        0.0725
      8 C         140.1254  140.6138  169.5139 C.3     1  UNL1        0.0614
      9 O         139.7539  140.0972  168.1555 O.3     1  UNL1       -0.4785
     10 C         139.3824  139.5807  166.7972 C.ar    1  UNL1        0.1386
     11 C         138.9832  138.1452  166.6240 C.ar    1  UNL1        0.0369
     12 C         138.6117  137.6286  165.2656 C.ar    1  UNL1        0.0031
     13 C         138.6393  138.5476  164.0804 C.ar    1  UNL1        0.0002
     14 C         139.0385  139.9831  164.2535 C.ar    1  UNL1        0.0030
     15 C         139.4100  140.4997  165.6119 C.ar    1  UNL1        0.0338
     16 H         140.2468  142.9729  171.7185 H       1  UNL1        0.1233
     17 C         139.8922  144.6920  162.2294 C.ar    1  UNL1        0.0536
     18 C         138.5797  144.2612  162.8139 C.ar    1  UNL1        0.0045
     19 C         138.5520  143.3422  163.9991 C.ar    1  UNL1        0.0001
     20 C         139.8369  142.8541  164.5998 C.ar    1  UNL1       -0.0001
     21 C         141.1494  143.2849  164.0153 C.ar    1  UNL1        0.0001
     22 C         141.1771  144.2039  162.8301 C.ar    1  UNL1        0.0045
     23 N         140.2348  145.0684  159.6817 N.am    1  UNL1       -0.2761
     24 C         139.9198  145.6110  161.0441 C.2     1  UNL1        0.2490
     25 O         139.6326  147.0725  161.2215 O.2     1  UNL1       -0.2699
     26 C         141.4062  145.9278  157.5278 C.3     1  UNL1        0.0233
     27 C         140.2624  145.9874  158.4964 C.3     1  UNL1        0.0938
     28 C         140.5220  143.6068  159.5043 C.3     1  UNL1        0.0938
     29 C         139.4002  142.6501  159.2286 C.3     1  UNL1        0.0233
@<TRIPOS>BOND
     1    26    27    1
     2    27    23    1
     3    23    28    1
     4    28    29    1
     5    23    24   am
     6    24    25    2
     7    24    17    1
     8    17    18   ar
     9    18    19   ar
    10    19    20   ar
    11    20     1    1
    12     1     2    2
    13     2     3    1
    14     3     4    1
    15     4     5    1
    16     5     6    1
    17     6     7    1
    18     7     8    1
    19     3     9    1
    20     9    10    1
    21    10    11   ar
    22    11    12   ar
    23    12    13   ar
    24    13    14   ar
    25    14    15   ar
    26    20    21   ar
    27    21    22   ar
    28    22    17   ar
    29    15     1    1
    30     8     3    1
    31    15    10   ar
    32     6    16    1
@<TRIPOS>MOLECULE
*****
 29 32 0 0 0
SMALL
GASTEIGER

@<TRIPOS>ATOM
      1 C         141.4989  140.9624  166.3188 C.2     1  UNL1        0.0020
      2 C         142.1210  141.5858  167.5331 C.2     1  UNL1        0.0130
      3 C         141.4800  141.4106  168.8779 C.3     1  UNL1        0.1542
      4 C         142.7430  142.2091  168.7474 C.3     1  UNL1        0.0614
      5 C         143.3651  142.8324  169.9616 C.3     1  UNL1        0.0725
      6 N         142.7241  142.6573  171.3064 N.3     1  UNL1       -0.2972
      7 C         141.4610  141.8588  171.4369 C.3     1  UNL1        0.0725
      8 C         140.8390  141.2355  170.2227 C.3     1  UNL1        0.0614
      9 O         140.2169  140.6121  169.0084 O.3     1  UNL1       -0.4785
     10 C         139.5948  139.9888  167.7941 C.ar    1  UNL1        0.1386
     11 C         138.3317  139.1902  167.9246 C.ar    1  UNL1        0.0369
     12 C         137.7096  138.5669  166.7104 C.ar    1  UNL1        0.0031
     13 C         138.3507  138.7421  165.3656 C.ar    1  UNL1        0.0002
     14 C         139.6137  139.5405  165.2350 C.ar    1  UNL1        0.0030
     15 C         140.2358  140.1639  166.4493 C.ar    1  UNL1        0.0338
     16 H         142.5191  143.5923  171.6589 H       1  UNL1        0.1233
     17 C         143.4219  141.4878  162.2845 C.ar    1  UNL1        0.0536
     18 C         142.2666  142.3573  162.6836 C.ar    1  UNL1        0.0045
     19 C         141.6256  142.1821  164.0284 C.ar    1  UNL1        0.0001
     20 C         142.1399  141.1376  164.9740 C.ar    1  UNL1       -0.0001
     21 C         143.2952  140.2680  164.5749 C.ar    1  UNL1        0.0001
     22 C         143.9362  140.4432  163.2301 C.ar    1  UNL1        0.0045
     23 N         143.5893  140.8500  159.7715 N.am    1  UNL1       -0.2761
     24 C         144.0629  141.6630  160.9397 C.2     1  UNL1        0.2490
     25 O         145.1776  142.6512  160.7631 O.2     1  UNL1       -0.2699
     26 C         143.8289  142.1730  157.5483 C.3     1  UNL1        0.0233
     27 C         144.2303  141.0252  158.4267 C.3     1  UNL1        0.0938
     28 C         142.4746  139.8618  159.9480 C.3     1  UNL1        0.0938
     29 C         142.7858  138.4283  160.2611 C.3     1  UNL1        0.0233
@<TRIPOS>BOND
     1    26    27    1
     2    27    23    1
     3    23    28    1
     4    28    29    1
     5    23    24   am
     6    24    25    2
     7    24    17    1
     8    17    18   ar
     9    18    19   ar
    10    19    20   ar
    11    20     1    1
    12     1     2    2
    13     2     3    1
    14     3     4    1
    15     4     5    1
    16     5     6    1
    17     6     7    1
    18     7     8    1
    19     3     9    1
    20     9    10    1
    21    10    11   ar
    22    11    12   ar
    23    12    13   ar
    24    13    14   ar
    25    14    15   ar
    26    20    21   ar
    27    21    22   ar
    28    22    17   ar
    29    15     1    1
    30     8     3    1
    31    15    10   ar
    32     6    16    1
@<TRIPOS>MOLECULE
*****
 29 32 0 0 0
SMALL
GASTEIGER

@<TRIPOS>ATOM
      1 C         141.9755  142.1204  162.5509 C.2     1  UNL1        0.0020
      2 C         142.5620  141.1702  161.5493 C.2     1  UNL1        0.0130
      3 C         142.5008  141.4914  160.0854 C.3     1  UNL1        0.1542
      4 C         143.1485  140.2200  160.5478 C.3     1  UNL1        0.0614
      5 C         143.7350  139.2698  159.5463 C.3     1  UNL1        0.0725
      6 N         143.6738  139.5910  158.0823 N.3     1  UNL1       -0.2972
      7 C         143.0261  140.8625  157.6200 C.3     1  UNL1        0.0725
      8 C         142.4396  141.8127  158.6215 C.3     1  UNL1        0.0614
      9 O         141.8531  142.7630  159.6230 O.3     1  UNL1       -0.4785
     10 C         141.2666  143.7132  160.6246 C.ar    1  UNL1        0.1386
     11 C         140.6188  144.9847  160.1622 C.ar    1  UNL1        0.0369
     12 C         140.0323  145.9349  161.1637 C.ar    1  UNL1        0.0031
     13 C         140.0935  145.6136  162.6276 C.ar    1  UNL1        0.0002
     14 C         140.7412  144.3422  163.0900 C.ar    1  UNL1        0.0030
     15 C         141.3278  143.3919  162.0885 C.ar    1  UNL1        0.0338
     16 H         143.1720  138.8248  157.6335 H       1  UNL1        0.1233
     17 C         142.1591  141.1567  166.9426 C.ar    1  UNL1        0.0536
     18 C         141.0799  140.5604  166.0884 C.ar    1  UNL1        0.0045
     19 C         141.0187  140.8817  164.6245 C.ar    1  UNL1        0.0001
     20 C         142.0367  141.7992  164.0148 C.ar    1  UNL1       -0.0001
     21 C         143.1159  142.3955  164.8690 C.ar    1  UNL1        0.0001
     22 C         143.1771  142.0743  166.3329 C.ar    1  UNL1        0.0045
     23 N         141.4648  141.6775  169.3914 N.am    1  UNL1       -0.2761
     24 C         142.2203  140.8354  168.4065 C.2     1  UNL1        0.2490
     25 O         143.0370  139.6720  168.8855 O.2     1  UNL1       -0.2699
     26 C         140.5621  140.3714  171.4480 C.3     1  UNL1        0.0233
     27 C         141.5260  141.3563  170.8553 C.3     1  UNL1        0.0938
     28 C         140.6480  142.8410  168.9124 C.3     1  UNL1        0.0938
     29 C         140.4019  144.0091  169.8205 C.3     1  UNL1        0.0233
@<TRIPOS>BOND
     1    26    27    1
     2    27    23    1
     3    23    28    1
     4    28    29    1
     5    23    24   am
     6    24    25    2
     7    24    17    1
     8    17    18   ar
     9    18    19   ar
    10    19    20   ar
    11    20     1    1
    12     1     2    2
    13     2     3    1
    14     3     4    1
    15     4     5    1
    16     5     6    1
    17     6     7    1
    18     7     8    1
    19     3     9    1
    20     9    10    1
    21    10    11   ar
    22    11    12   ar
    23    12    13   ar
    24    13    14   ar
    25    14    15   ar
    26    20    21   ar
    27    21    22   ar
    28    22    17   ar
    29    15     1    1
    30     8     3    1
    31    15    10   ar
    32     6    16    1
@<TRIPOS>MOLECULE
*****
 29 32 0 0 0
SMALL
GASTEIGER

@<TRIPOS>ATOM
      1 C         140.2814  140.3692  162.4667 C.2     1  UNL1        0.0020
      2 C         140.2962  141.8684  162.5156 C.2     1  UNL1        0.0130
      3 C         139.6863  142.5868  163.6826 C.3     1  UNL1        0.1542
      4 C         140.3109  143.3675  162.5645 C.3     1  UNL1        0.0614
      5 C         140.3257  144.8666  162.6134 C.3     1  UNL1        0.0725
      6 N         139.7158  145.5850  163.7805 N.3     1  UNL1       -0.2972
      7 C         139.0911  144.8043  164.8986 C.3     1  UNL1        0.0725
      8 C         139.0764  143.3052  164.8496 C.3     1  UNL1        0.0614
      9 O         139.0616  141.8060  164.8008 O.3     1  UNL1       -0.4785
     10 C         139.0468  140.3069  164.7518 C.ar    1  UNL1        0.1386
     11 C         138.4221  139.5261  165.8700 C.ar    1  UNL1        0.0369
     12 C         138.4073  138.0270  165.8210 C.ar    1  UNL1        0.0031
     13 C         139.0172  137.3086  164.6540 C.ar    1  UNL1        0.0002
     14 C         139.6419  138.0893  163.5359 C.ar    1  UNL1        0.0030
     15 C         139.6567  139.5885  163.5848 C.ar    1  UNL1        0.0338
     16 H         138.9889  146.1937  163.4044 H       1  UNL1        0.1233
     17 C         142.1111  138.2141  158.9656 C.ar    1  UNL1        0.0536
     18 C         142.9585  138.5778  160.1486 C.ar    1  UNL1        0.0045
     19 C         142.3486  139.2962  161.3156 C.ar    1  UNL1        0.0001
     20 C         140.8913  139.6509  161.2997 C.ar    1  UNL1       -0.0001
     21 C         140.0437  139.2872  160.1166 C.ar    1  UNL1        0.0001
     22 C         140.6537  138.5688  158.9496 C.ar    1  UNL1        0.0045
     23 N         143.2100  138.2724  156.6121 N.am    1  UNL1       -0.2761
     24 C         142.7210  137.4958  157.7986 C.2     1  UNL1        0.2490
     25 O         142.8419  136.0007  157.8180 O.2     1  UNL1       -0.2699
     26 C         142.9402  136.8502  154.4546 C.3     1  UNL1        0.0233
     27 C         143.8199  137.5540  155.4451 C.3     1  UNL1        0.0938
     28 C         143.0891  139.7674  156.5926 C.3     1  UNL1        0.0938
     29 C         144.2017  140.6169  157.1316 C.3     1  UNL1        0.0233
@<TRIPOS>BOND
     1    26    27    1
     2    27    23    1
     3    23    28    1
     4    28    29    1
     5    23    24   am
     6    24    25    2
     7    24    17    1
     8    17    18   ar
     9    18    19   ar
    10    19    20   ar
    11    20     1    1
    12     1     2    2
    13     2     3    1
    14     3     4    1
    15     4     5    1
    16     5     6    1
    17     6     7    1
    18     7     8    1
    19     3     9    1
    20     9    10    1
    21    10    11   ar
    22    11    12   ar
    23    12    13   ar
    24    13    14   ar
    25    14    15   ar
    26    20    21   ar
    27    21    22   ar
    28    22    17   ar
    29    15     1    1
    30     8     3    1
    31    15    10   ar
    32     6    16    1
@<TRIPOS>MOLECULE
*****
 29 32 0 0 0
SMALL
GASTEIGER

@<TRIPOS>ATOM
      1 C         140.4351  142.3626  161.5220 C.2     1  UNL1        0.0020
      2 C         141.9081  142.0825  161.5662 C.2     1  UNL1        0.0130
      3 C         142.7185  142.5153  162.7519 C.3     1  UNL1        0.1542
      4 C         143.3810  141.8025  161.6104 C.3     1  UNL1        0.0614
      5 C         144.8540  141.5225  161.6547 C.3     1  UNL1        0.0725
      6 N         145.6644  141.9553  162.8404 N.3     1  UNL1       -0.2972
      7 C         145.0019  142.6681  163.9818 C.3     1  UNL1        0.0725
      8 C         143.5290  142.9481  163.9376 C.3     1  UNL1        0.0614
      9 O         142.0560  143.2281  163.8934 O.3     1  UNL1       -0.4785
     10 C         140.5830  143.5081  163.8492 C.ar    1  UNL1        0.1386
     11 C         139.9205  144.2210  164.9907 C.ar    1  UNL1        0.0369
     12 C         138.4475  144.5010  164.9464 C.ar    1  UNL1        0.0031
     13 C         137.6371  144.0682  163.7607 C.ar    1  UNL1        0.0002
     14 C         138.2996  143.3554  162.6193 C.ar    1  UNL1        0.0030
     15 C         139.7726  143.0754  162.6635 C.ar    1  UNL1        0.0338
     16 H         146.3928  142.5765  162.4883 H       1  UNL1        0.1233
     17 C         138.0038  141.0643  157.9649 C.ar    1  UNL1        0.0536
     18 C         138.3534  140.0742  159.0361 C.ar    1  UNL1        0.0045
     19 C         139.1638  140.5070  160.2218 C.ar    1  UNL1        0.0001
     20 C         139.6247  141.9298  160.3363 C.ar    1  UNL1       -0.0001
     21 C         139.2751  142.9200  159.2650 C.ar    1  UNL1        0.0001
     22 C         138.4646  142.4872  158.0793 C.ar    1  UNL1        0.0045
     23 N         137.8808  140.2085  155.5149 N.am    1  UNL1       -0.2761
     24 C         137.1933  140.6315  156.7791 C.2     1  UNL1        0.2490
     25 O         135.6954  140.6218  156.8578 O.2     1  UNL1       -0.2699
     26 C         136.6359  138.3459  154.1992 C.3     1  UNL1        0.0233
     27 C         137.0704  139.7757  154.3292 C.3     1  UNL1        0.0938
     28 C         139.3787  140.2182  155.4363 C.3     1  UNL1        0.0938
     29 C         140.1517  138.9599  155.6992 C.3     1  UNL1        0.0233
@<TRIPOS>BOND
     1    26    27    1
     2    27    23    1
     3    23    28    1
     4    28    29    1
     5    23    24   am
     6    24    25    2
     7    24    17    1
     8    17    18   ar
     9    18    19   ar
    10    19    20   ar
    11    20     1    1
    12     1     2    2
    13     2     3    1
    14     3     4    1
    15     4     5    1
    16     5     6    1
    17     6     7    1
    18     7     8    1
    19     3     9    1
    20     9    10    1
    21    10    11   ar
    22    11    12   ar
    23    12    13   ar
    24    13    14   ar
    25    14    15   ar
    26    20    21   ar
    27    21    22   ar
    28    22    17   ar
    29    15     1    1
    30     8     3    1
    31    15    10   ar
    32     6    16    1
@<TRIPOS>MOLECULE
*****
 29 32 0 0 0
SMALL
GASTEIGER

@<TRIPOS>ATOM
      1 C         141.6308  140.1486  163.6889 C.2     1  UNL1        0.0020
      2 C         140.5177  139.5810  164.5189 C.2     1  UNL1        0.0130
      3 C         140.3487  140.0153  165.9446 C.3     1  UNL1        0.1542
      4 C         139.4046  139.0135  165.3489 C.3     1  UNL1        0.0614
      5 C         138.2915  138.4459  166.1789 C.3     1  UNL1        0.0725
      6 N         138.1225  138.8803  167.6046 N.3     1  UNL1       -0.2972
      7 C         139.0666  139.8821  168.2004 C.3     1  UNL1        0.0725
      8 C         140.1797  140.4497  167.3704 C.3     1  UNL1        0.0614
      9 O         141.2928  141.0172  166.5404 O.3     1  UNL1       -0.4785
     10 C         142.4059  141.5848  165.7104 C.ar    1  UNL1        0.1386
     11 C         143.3500  142.5867  166.3061 C.ar    1  UNL1        0.0369
     12 C         144.4631  143.1542  165.4761 C.ar    1  UNL1        0.0031
     13 C         144.6321  142.7199  164.0504 C.ar    1  UNL1        0.0002
     14 C         143.6880  141.7180  163.4546 C.ar    1  UNL1        0.0030
     15 C         142.5749  141.1504  164.2846 C.ar    1  UNL1        0.0338
     16 H         138.1855  138.0391  168.1781 H       1  UNL1        0.1233
     17 C         142.1378  138.8456  159.4116 C.ar    1  UNL1        0.0536
     18 C         141.2123  139.9776  159.7461 C.ar    1  UNL1        0.0045
     19 C         141.0433  140.4119  161.1718 C.ar    1  UNL1        0.0001
     20 C         141.7998  139.7142  162.2631 C.ar    1  UNL1       -0.0001
     21 C         142.7253  138.5821  161.9286 C.ar    1  UNL1        0.0001
     22 C         142.8943  138.1478  160.5029 C.ar    1  UNL1        0.0045
     23 N         143.2887  139.1169  157.0982 N.am    1  UNL1       -0.2761
     24 C         142.3068  138.4112  157.9858 C.2     1  UNL1        0.2490
     25 O         141.4939  137.2712  157.4477 O.2     1  UNL1       -0.2699
     26 C         144.3555  137.5273  155.3417 C.3     1  UNL1        0.0233
     27 C         143.4577  138.6826  155.6724 C.3     1  UNL1        0.0938
     28 C         144.1016  140.2569  157.6363 C.3     1  UNL1        0.0938
     29 C         145.1077  140.9406  156.7586 C.3     1  UNL1        0.0233
@<TRIPOS>BOND
     1    26    27    1
     2    27    23    1
     3    23    28    1
     4    28    29    1
     5    23    24   am
     6    24    25    2
     7    24    17    1
     8    17    18   ar
     9    18    19   ar
    10    19    20   ar
    11    20     1    1
    12     1     2    2
    13     2     3    1
    14     3     4    1
    15     4     5    1
    16     5     6    1
    17     6     7    1
    18     7     8    1
    19     3     9    1
    20     9    10    1
    21    10    11   ar
    22    11    12   ar
    23    12    13   ar
    24    13    14   ar
    25    14    15   ar
    26    20    21   ar
    27    21    22   ar
    28    22    17   ar
    29    15     1    1
    30     8     3    1
    31    15    10   ar
    32     6    16    1
@<TRIPOS>MOLECULE
*****
 29 32 0 0 0
SMALL
GASTEIGER

@<TRIPOS>ATOM
      1 C         140.3164  141.0423  163.5817 C.2     1  UNL1        0.0020
      2 C         141.1981  140.1563  164.4111 C.2     1  UNL1        0.0130
      3 C         141.5020  140.5210  165.8340 C.3     1  UNL1        0.1542
      4 C         142.0797  139.2705  165.2404 C.3     1  UNL1        0.0614
      5 C         142.9613  138.3846  166.0698 C.3     1  UNL1        0.0725
      6 N         143.2652  138.7493  167.4927 N.3     1  UNL1       -0.2972
      7 C         142.6875  139.9998  168.0863 C.3     1  UNL1        0.0725
      8 C         141.8059  140.8857  167.2569 C.3     1  UNL1        0.0614
      9 O         140.9242  141.7716  166.4275 O.3     1  UNL1       -0.4785
     10 C         140.0426  142.6575  165.5981 C.ar    1  UNL1        0.1386
     11 C         139.4648  143.9081  166.1916 C.ar    1  UNL1        0.0369
     12 C         138.5831  144.7940  165.3622 C.ar    1  UNL1        0.0031
     13 C         138.2792  144.4293  163.9393 C.ar    1  UNL1        0.0002
     14 C         138.8570  143.1788  163.3458 C.ar    1  UNL1        0.0030
     15 C         139.7387  142.2928  164.1752 C.ar    1  UNL1        0.0338
     16 H         144.2794  138.8299  167.5659 H       1  UNL1        0.1233
     17 C         139.4047  139.9483  159.3130 C.ar    1  UNL1        0.0536
     18 C         140.4732  140.9561  159.6171 C.ar    1  UNL1        0.0045
     19 C         140.7771  141.3208  161.0400 C.ar    1  UNL1        0.0001
     20 C         140.0125  140.6776  162.1588 C.ar    1  UNL1       -0.0001
     21 C         138.9439  139.6697  161.8547 C.ar    1  UNL1        0.0001
     22 C         138.6400  139.3051  160.4317 C.ar    1  UNL1        0.0045
     23 N         139.9902  138.6250  157.1552 N.am    1  UNL1       -0.2761
     24 C         139.1008  139.5836  157.8900 C.2     1  UNL1        0.2490
     25 O         137.9076  140.1776  157.2020 O.2     1  UNL1       -0.2699
     26 C         139.2816  136.8576  155.3875 C.3     1  UNL1        0.0233
     27 C         139.6863  138.2603  155.7323 C.3     1  UNL1        0.0938
     28 C         141.1834  138.0309  157.8432 C.3     1  UNL1        0.0938
     29 C         142.4760  137.8717  157.0991 C.3     1  UNL1        0.0233
@<TRIPOS>BOND
     1    26    27    1
     2    27    23    1
     3    23    28    1
     4    28    29    1
     5    23    24   am
     6    24    25    2
     7    24    17    1
     8    17    18   ar
     9    18    19   ar
    10    19    20   ar
    11    20     1    1
    12     1     2    2
    13     2     3    1
    14     3     4    1
    15     4     5    1
    16     5     6    1
    17     6     7    1
    18     7     8    1
    19     3     9    1
    20     9    10    1
    21    10    11   ar
    22    11    12   ar
    23    12    13   ar
    24    13    14   ar
    25    14    15   ar
    26    20    21   ar
    27    21    22   ar
    28    22    17   ar
    29    15     1    1
    30     8     3    1
    31    15    10   ar
    32     6    16    1
@<TRIPOS>MOLECULE
*****
 29 32 0 0 0
SMALL
GASTEIGER

@<TRIPOS>ATOM
      1 C         141.9238  141.6527  163.8618 C.2     1  UNL1        0.0020
      2 C         142.4056  140.7003  164.9159 C.2     1  UNL1        0.0130
      3 C         141.9061  140.8255  166.3247 C.3     1  UNL1        0.1542
      4 C         142.8874  139.7480  165.9699 C.3     1  UNL1        0.0614
      5 C         143.3691  138.7957  167.0239 C.3     1  UNL1        0.0725
      6 N         142.8696  138.9209  168.4327 N.3     1  UNL1       -0.2972
      7 C         141.8883  139.9984  168.7875 C.3     1  UNL1        0.0725
      8 C         141.4065  140.9507  167.7335 C.3     1  UNL1        0.0614
      9 O         140.9247  141.9031  166.6795 O.3     1  UNL1       -0.4785
     10 C         140.4430  142.8554  165.6255 C.ar    1  UNL1        0.1386
     11 C         139.4616  143.9330  165.9803 C.ar    1  UNL1        0.0369
     12 C         138.9798  144.8854  164.9263 C.ar    1  UNL1        0.0031
     13 C         139.4794  144.7602  163.5175 C.ar    1  UNL1        0.0002
     14 C         140.4607  143.6827  163.1626 C.ar    1  UNL1        0.0030
     15 C         140.9425  142.7303  164.2167 C.ar    1  UNL1        0.0338
     16 H         143.6886  139.0622  169.0240 H       1  UNL1        0.1233
     17 C         143.4225  141.2772  159.6354 C.ar    1  UNL1        0.0536
     18 C         144.2209  142.0420  160.6491 C.ar    1  UNL1        0.0045
     19 C         143.7213  142.1672  162.0579 C.ar    1  UNL1        0.0001
     20 C         142.4234  141.5276  162.4530 C.ar    1  UNL1       -0.0001
     21 C         141.6250  140.7627  161.4393 C.ar    1  UNL1        0.0001
     22 C         142.1245  140.6375  160.0305 C.ar    1  UNL1        0.0045
     23 N         143.7076  142.2722  157.2524 N.am    1  UNL1       -0.2761
     24 C         143.9221  141.1520  158.2266 C.2     1  UNL1        0.2490
     25 O         144.6362  139.9064  157.7919 O.2     1  UNL1       -0.2699
     26 C         145.6237  142.5152  155.5146 C.3     1  UNL1        0.0233
     27 C         144.2072  142.1470  155.8436 C.3     1  UNL1        0.0938
     28 C         142.9936  143.5177  157.6871 C.3     1  UNL1        0.0938
     29 C         141.4982  143.5946  157.5986 C.3     1  UNL1        0.0233
@<TRIPOS>BOND
     1    26    27    1
     2    27    23    1
     3    23    28    1
     4    28    29    1
     5    23    24   am
     6    24    25    2
     7    24    17    1
     8    17    18   ar
     9    18    19   ar
    10    19    20   ar
    11    20     1    1
    12     1     2    2
    13     2     3    1
    14     3     4    1
    15     4     5    1
    16     5     6    1
    17     6     7    1
    18     7     8    1
    19     3     9    1
    20     9    10    1
    21    10    11   ar
    22    11    12   ar
    23    12    13   ar
    24    13    14   ar
    25    14    15   ar
    26    20    21   ar
    27    21    22   ar
    28    22    17   ar
    29    15     1    1
    30     8     3    1
    31    15    10   ar
    32     6    16    1
