@<TRIPOS>MOLECULE
*****
 31 32 0 0 0
SMALL
GASTEIGER

@<TRIPOS>ATOM
      1 C         141.7964  140.4427  168.5279 C.3     1  UNL1        0.2430
      2 C         140.6206  140.0644  169.3791 C.2     1  UNL1        0.2845
      3 O         139.2280  140.3691  168.9126 O.2     1  UNL1       -0.2691
      4 N         140.8376  139.3814  170.6969 N.am    1  UNL1       -0.1940
      5 O         139.6619  139.0031  171.5481 O.3     1  UNL1       -0.2951
      6 H         141.7516  139.1815  171.0030 H       1  UNL1        0.1823
      7 H         138.8419  139.2693  171.1036 H       1  UNL1        0.2414
      8 O         142.0883  141.8879  168.2518 O.3     1  UNL1       -0.4699
      9 C         138.5548  144.2745  165.2823 C.3     1  UNL1        0.0335
     10 C         139.9250  143.6890  165.4542 C.ar    1  UNL1        0.0083
     11 C         140.3215  143.0812  166.7670 C.ar    1  UNL1        0.0349
     12 C         141.6918  142.4957  166.9390 C.ar    1  UNL1        0.1386
     13 C         142.6655  142.5179  165.7982 C.ar    1  UNL1        0.0349
     14 C         142.2689  143.1256  164.4854 C.ar    1  UNL1        0.0083
     15 C         143.2426  143.1478  163.3446 C.3     1  UNL1        0.0335
     16 C         140.8987  143.7112  164.3135 C.ar    1  UNL1        0.1323
     17 F         140.5021  144.3189  163.0006 F       1  UNL1       -0.2048
     18 C         142.6801  139.3759  167.9528 C.3     1  UNL1        0.0533
     19 C         142.4650  138.9016  166.5461 C.3     1  UNL1        0.0057
     20 C         143.3830  139.3594  165.4516 C.3     1  UNL1        0.0172
     21 C         143.3018  138.7302  164.0924 C.3     1  UNL1        0.0688
     22 N         142.6169  139.4534  162.9708 N.3     1  UNL1       -0.2937
     23 H         143.1526  139.2594  162.1248 H       1  UNL1        0.1236
     24 C         141.1816  139.1558  162.6523 C.3     1  UNL1        0.0956
     25 C         140.1802  139.0191  163.7606 C.ar    1  UNL1       -0.0062
     26 C         139.5795  140.2441  164.3839 C.ar    1  UNL1       -0.0006
     27 C         138.5779  140.1073  165.4923 C.ar    1  UNL1        0.0294
     28 C         138.1772  138.7457  165.9772 C.ar    1  UNL1        0.1401
     29 F         137.1757  138.6090  167.0855 F       1  UNL1       -0.2042
     30 C         138.7779  137.5207  165.3539 C.ar    1  UNL1        0.0294
     31 C         139.7794  137.6574  164.2456 C.ar    1  UNL1       -0.0006
@<TRIPOS>BOND
     1     9    10    1
     2    10    11   ar
     3    11    12   ar
     4    12     8    1
     5     8     1    1
     6     1    18    1
     7    18    19    1
     8    19    20    1
     9    20    21    1
    10    21    22    1
    11    22    24    1
    12    24    25    1
    13    25    26   ar
    14    26    27   ar
    15    27    28   ar
    16    28    29    1
    17    28    30   ar
    18    30    31   ar
    19     1     2    1
    20     2     3    2
    21     2     4   am
    22     4     5    1
    23    12    13   ar
    24    13    14   ar
    25    14    15    1
    26    14    16   ar
    27    16    17    1
    28    16    10   ar
    29    31    25   ar
    30    22    23    1
    31     4     6    1
    32     5     7    1
@<TRIPOS>MOLECULE
*****
 31 32 0 0 0
SMALL
GASTEIGER

@<TRIPOS>ATOM
      1 C         140.4203  140.9466  168.8926 C.3     1  UNL1        0.2430
      2 C         140.0202  142.2318  169.5546 C.2     1  UNL1        0.2845
      3 O         140.3186  143.5427  168.8895 O.2     1  UNL1       -0.2691
      4 N         139.3216  142.2060  170.8818 N.am    1  UNL1       -0.1940
      5 O         138.9214  143.4911  171.5438 O.3     1  UNL1       -0.2951
      6 H         139.1257  141.3456  171.3183 H       1  UNL1        0.1823
      7 H         139.1861  144.2387  170.9852 H       1  UNL1        0.2414
      8 O         141.8721  140.6010  168.7417 O.3     1  UNL1       -0.4699
      9 C         144.3814  143.7687  165.4752 C.3     1  UNL1        0.0335
     10 C         143.8204  142.4157  165.7986 C.ar    1  UNL1        0.0083
     11 C         143.1268  142.1849  167.1084 C.ar    1  UNL1        0.0349
     12 C         142.5658  140.8318  167.4318 C.ar    1  UNL1        0.1386
     13 C         142.6985  139.7096  166.4454 C.ar    1  UNL1        0.0349
     14 C         143.3921  139.9404  165.1357 C.ar    1  UNL1        0.0083
     15 C         143.5248  138.8182  164.1492 C.3     1  UNL1        0.0335
     16 C         143.9531  141.2935  164.8123 C.ar    1  UNL1        0.1323
     17 F         144.6467  141.5242  163.5024 F       1  UNL1       -0.2048
     18 C         139.3687  140.0071  168.3815 C.3     1  UNL1        0.0533
     19 C         139.0870  139.9252  166.9104 C.3     1  UNL1        0.0057
     20 C         138.3992  138.7182  166.3445 C.3     1  UNL1        0.0172
     21 C         138.8425  138.1505  165.0288 C.3     1  UNL1        0.0688
     22 N         138.5042  138.8625  163.7526 N.3     1  UNL1       -0.2937
     23 H         137.5614  139.2352  163.8644 H       1  UNL1        0.1236
     24 C         139.3639  139.9951  163.2752 C.3     1  UNL1        0.0956
     25 C         139.2004  141.3628  163.8691 C.ar    1  UNL1       -0.0062
     26 C         137.8375  141.9823  163.9616 C.ar    1  UNL1       -0.0006
     27 C         137.6740  143.3500  164.5555 C.ar    1  UNL1        0.0294
     28 C         138.8735  144.0981  165.0570 C.ar    1  UNL1        0.1401
     29 F         138.7100  145.4658  165.6509 F       1  UNL1       -0.2042
     30 C         140.2365  143.4786  164.9645 C.ar    1  UNL1        0.0294
     31 C         140.4000  142.1110  164.3706 C.ar    1  UNL1       -0.0006
@<TRIPOS>BOND
     1     9    10    1
     2    10    11   ar
     3    11    12   ar
     4    12     8    1
     5     8     1    1
     6     1    18    1
     7    18    19    1
     8    19    20    1
     9    20    21    1
    10    21    22    1
    11    22    24    1
    12    24    25    1
    13    25    26   ar
    14    26    27   ar
    15    27    28   ar
    16    28    29    1
    17    28    30   ar
    18    30    31   ar
    19     1     2    1
    20     2     3    2
    21     2     4   am
    22     4     5    1
    23    12    13   ar
    24    13    14   ar
    25    14    15    1
    26    14    16   ar
    27    16    17    1
    28    16    10   ar
    29    31    25   ar
    30    22    23    1
    31     4     6    1
    32     5     7    1
@<TRIPOS>MOLECULE
*****
 31 32 0 0 0
SMALL
GASTEIGER

@<TRIPOS>ATOM
      1 C         140.9611  143.9172  163.5725 C.3     1  UNL1        0.2430
      2 C         139.5404  144.3939  163.6406 C.2     1  UNL1        0.2845
      3 O         138.9969  144.9508  164.9230 O.2     1  UNL1       -0.2691
      4 N         138.6634  144.3138  162.4264 N.am    1  UNL1       -0.1940
      5 O         137.2428  144.7905  162.4945 O.3     1  UNL1       -0.2951
      6 H         139.0202  143.9483  161.5848 H       1  UNL1        0.1823
      7 H         137.0540  145.1175  163.3880 H       1  UNL1        0.2414
      8 O         141.2594  142.5048  163.1646 O.3     1  UNL1       -0.4699
      9 C         139.4839  140.0423  167.3817 C.3     1  UNL1        0.0335
     10 C         139.6101  140.1380  165.8901 C.ar    1  UNL1        0.0083
     11 C         140.3716  141.2736  165.2732 C.ar    1  UNL1        0.0349
     12 C         140.4979  141.3692  163.7816 C.ar    1  UNL1        0.1386
     13 C         139.8626  140.3294  162.9069 C.ar    1  UNL1        0.0349
     14 C         139.1011  139.1939  163.5238 C.ar    1  UNL1        0.0083
     15 C         138.4658  138.1540  162.6491 C.3     1  UNL1        0.0335
     16 C         138.9749  139.0982  165.0154 C.ar    1  UNL1        0.1323
     17 F         138.2133  137.9626  165.6323 F       1  UNL1       -0.2048
     18 C         142.0832  144.8527  163.9122 C.3     1  UNL1        0.0533
     19 C         143.4939  144.3451  163.9621 C.3     1  UNL1        0.0057
     20 C         144.3187  144.2978  162.7101 C.3     1  UNL1        0.0172
     21 C         144.5064  142.9986  161.9842 C.3     1  UNL1        0.0688
     22 N         145.6319  142.0829  162.3644 N.3     1  UNL1       -0.2937
     23 H         146.4721  142.6581  162.4241 H       1  UNL1        0.1236
     24 C         145.5578  141.2913  163.6364 C.3     1  UNL1        0.0956
     25 C         144.5323  140.2069  163.7862 C.ar    1  UNL1       -0.0062
     26 C         144.0551  139.4541  162.5798 C.ar    1  UNL1       -0.0006
     27 C         143.0296  138.3696  162.7297 C.ar    1  UNL1        0.0294
     28 C         142.4814  138.0381  164.0860 C.ar    1  UNL1        0.1401
     29 F         141.4560  136.9537  164.2358 F       1  UNL1       -0.2042
     30 C         142.9586  138.7910  165.2924 C.ar    1  UNL1        0.0294
     31 C         143.9841  139.8754  165.1426 C.ar    1  UNL1       -0.0006
@<TRIPOS>BOND
     1     9    10    1
     2    10    11   ar
     3    11    12   ar
     4    12     8    1
     5     8     1    1
     6     1    18    1
     7    18    19    1
     8    19    20    1
     9    20    21    1
    10    21    22    1
    11    22    24    1
    12    24    25    1
    13    25    26   ar
    14    26    27   ar
    15    27    28   ar
    16    28    29    1
    17    28    30   ar
    18    30    31   ar
    19     1     2    1
    20     2     3    2
    21     2     4   am
    22     4     5    1
    23    12    13   ar
    24    13    14   ar
    25    14    15    1
    26    14    16   ar
    27    16    17    1
    28    16    10   ar
    29    31    25   ar
    30    22    23    1
    31     4     6    1
    32     5     7    1
@<TRIPOS>MOLECULE
*****
 31 32 0 0 0
SMALL
GASTEIGER

@<TRIPOS>ATOM
      1 C         141.0211  144.1313  163.9739 C.3     1  UNL1        0.2430
      2 C         139.5776  144.5314  163.8937 C.2     1  UNL1        0.2845
      3 O         138.8841  145.0837  165.1037 O.2     1  UNL1       -0.2691
      4 N         138.8276  144.3791  162.6036 N.am    1  UNL1       -0.1940
      5 O         137.3842  144.7791  162.5234 O.3     1  UNL1       -0.2951
      6 H         139.2828  144.0166  161.8095 H       1  UNL1        0.1823
      7 H         137.0929  145.1133  163.3862 H       1  UNL1        0.2414
      8 O         141.3896  142.6990  164.2242 O.3     1  UNL1       -0.4699
      9 C         138.2662  138.9736  166.0589 C.3     1  UNL1        0.0335
     10 C         139.2275  140.0992  166.3018 C.ar    1  UNL1        0.0083
     11 C         139.8279  140.8363  165.1416 C.ar    1  UNL1        0.0349
     12 C         140.7892  141.9619  165.3845 C.ar    1  UNL1        0.1386
     13 C         141.1500  142.3504  166.7876 C.ar    1  UNL1        0.0349
     14 C         140.5496  141.6133  167.9478 C.ar    1  UNL1        0.0083
     15 C         140.9105  142.0017  169.3511 C.3     1  UNL1        0.0335
     16 C         139.5883  140.4877  167.7049 C.ar    1  UNL1        0.1323
     17 F         138.9879  139.7506  168.8652 F       1  UNL1       -0.2048
     18 C         142.0960  145.1636  163.8036 C.3     1  UNL1        0.0533
     19 C         143.5392  144.7668  163.9021 C.3     1  UNL1        0.0057
     20 C         144.2955  144.3759  162.6670 C.3     1  UNL1        0.0172
     21 C         144.3372  142.9398  162.2361 C.3     1  UNL1        0.0688
     22 N         145.5664  142.1172  162.4859 N.3     1  UNL1       -0.2937
     23 H         146.3468  142.7696  162.5618 H       1  UNL1        0.1236
     24 C         145.6361  141.2174  163.6840 C.3     1  UNL1        0.0956
     25 C         144.5513  140.2112  163.9304 C.ar    1  UNL1       -0.0062
     26 C         144.0289  139.3788  162.7971 C.ar    1  UNL1       -0.0006
     27 C         142.9440  138.3726  163.0436 C.ar    1  UNL1        0.0294
     28 C         142.3816  138.1988  164.4233 C.ar    1  UNL1        0.1401
     29 F         141.2968  137.1926  164.6697 F       1  UNL1       -0.2042
     30 C         142.9041  139.0312  165.5565 C.ar    1  UNL1        0.0294
     31 C         143.9889  140.0374  165.3101 C.ar    1  UNL1       -0.0006
@<TRIPOS>BOND
     1     9    10    1
     2    10    11   ar
     3    11    12   ar
     4    12     8    1
     5     8     1    1
     6     1    18    1
     7    18    19    1
     8    19    20    1
     9    20    21    1
    10    21    22    1
    11    22    24    1
    12    24    25    1
    13    25    26   ar
    14    26    27   ar
    15    27    28   ar
    16    28    29    1
    17    28    30   ar
    18    30    31   ar
    19     1     2    1
    20     2     3    2
    21     2     4   am
    22     4     5    1
    23    12    13   ar
    24    13    14   ar
    25    14    15    1
    26    14    16   ar
    27    16    17    1
    28    16    10   ar
    29    31    25   ar
    30    22    23    1
    31     4     6    1
    32     5     7    1
@<TRIPOS>MOLECULE
*****
 31 32 0 0 0
SMALL
GASTEIGER

@<TRIPOS>ATOM
      1 C         141.9822  144.5452  163.1316 C.3     1  UNL1        0.2430
      2 C         141.1877  145.1941  162.0372 C.2     1  UNL1        0.2845
      3 O         141.6063  145.0275  160.6065 O.2     1  UNL1       -0.2691
      4 N         139.9745  146.0096  162.3735 N.am    1  UNL1       -0.1940
      5 O         139.1799  146.6585  161.2792 O.3     1  UNL1       -0.2951
      6 H         139.6997  146.1190  163.3125 H       1  UNL1        0.1823
      7 H         139.5831  146.4527  160.4213 H       1  UNL1        0.2414
      8 O         141.3707  144.3491  164.4872 O.3     1  UNL1       -0.4699
      9 C         137.4359  141.2017  163.2181 C.3     1  UNL1        0.0335
     10 C         138.5711  141.5589  164.1311 C.ar    1  UNL1        0.0083
     11 C         139.4033  142.7754  163.8527 C.ar    1  UNL1        0.0349
     12 C         140.5385  143.1326  164.7657 C.ar    1  UNL1        0.1386
     13 C         140.8416  142.2733  165.9572 C.ar    1  UNL1        0.0349
     14 C         140.0094  141.0568  166.2357 C.ar    1  UNL1        0.0083
     15 C         140.3124  140.1975  167.4273 C.3     1  UNL1        0.0335
     16 C         138.8742  140.6996  165.3227 C.ar    1  UNL1        0.1323
     17 F         138.0420  139.4831  165.6012 F       1  UNL1       -0.2048
     18 C         143.3882  144.0925  162.8704 C.3     1  UNL1        0.0533
     19 C         144.2855  143.7325  164.0172 C.3     1  UNL1        0.0057
     20 C         144.3734  142.3092  164.4827 C.3     1  UNL1        0.0172
     21 C         145.3338  141.3630  163.8251 C.3     1  UNL1        0.0688
     22 N         145.0887  139.8844  163.8838 N.3     1  UNL1       -0.2937
     23 H         145.9749  139.4489  164.1395 H       1  UNL1        0.1236
     24 C         144.0504  139.3326  164.8153 C.3     1  UNL1        0.0956
     25 C         142.7128  138.9118  164.2828 C.ar    1  UNL1       -0.0062
     26 C         141.9298  137.8411  164.9833 C.ar    1  UNL1       -0.0006
     27 C         140.5921  137.4203  164.4508 C.ar    1  UNL1        0.0294
     28 C         140.0375  138.0700  163.2178 C.ar    1  UNL1        0.1401
     29 F         138.6999  137.6491  162.6854 F       1  UNL1       -0.2042
     30 C         140.8205  139.1406  162.5174 C.ar    1  UNL1        0.0294
     31 C         142.1581  139.5615  163.0498 C.ar    1  UNL1       -0.0006
@<TRIPOS>BOND
     1     9    10    1
     2    10    11   ar
     3    11    12   ar
     4    12     8    1
     5     8     1    1
     6     1    18    1
     7    18    19    1
     8    19    20    1
     9    20    21    1
    10    21    22    1
    11    22    24    1
    12    24    25    1
    13    25    26   ar
    14    26    27   ar
    15    27    28   ar
    16    28    29    1
    17    28    30   ar
    18    30    31   ar
    19     1     2    1
    20     2     3    2
    21     2     4   am
    22     4     5    1
    23    12    13   ar
    24    13    14   ar
    25    14    15    1
    26    14    16   ar
    27    16    17    1
    28    16    10   ar
    29    31    25   ar
    30    22    23    1
    31     4     6    1
    32     5     7    1
@<TRIPOS>MOLECULE
*****
 31 32 0 0 0
SMALL
GASTEIGER

@<TRIPOS>ATOM
      1 C         139.7399  140.1093  166.8675 C.3     1  UNL1        0.2430
      2 C         139.6186  140.4331  168.3271 C.2     1  UNL1        0.2845
      3 O         140.3992  141.5738  168.9097 O.2     1  UNL1       -0.2691
      4 N         138.7166  139.6162  169.2042 N.am    1  UNL1       -0.1940
      5 O         138.5953  139.9400  170.6637 O.3     1  UNL1       -0.2951
      6 H         138.2043  138.8675  168.8218 H       1  UNL1        0.1823
      7 H         139.1614  140.6989  170.8747 H       1  UNL1        0.2414
      8 O         140.9984  140.4501  166.1258 O.3     1  UNL1       -0.4699
      9 C         144.0060  144.1166  164.0019 C.3     1  UNL1        0.0335
     10 C         142.6493  143.6274  164.4143 C.ar    1  UNL1        0.0083
     11 C         142.5022  142.2834  165.0638 C.ar    1  UNL1        0.0349
     12 C         141.1455  141.7942  165.4762 C.ar    1  UNL1        0.1386
     13 C         139.9360  142.6490  165.2391 C.ar    1  UNL1        0.0349
     14 C         140.0831  143.9930  164.5896 C.ar    1  UNL1        0.0083
     15 C         138.8735  144.8479  164.3524 C.3     1  UNL1        0.0335
     16 C         141.4398  144.4822  164.1772 C.ar    1  UNL1        0.1323
     17 F         141.5869  145.8263  163.5277 F       1  UNL1       -0.2048
     18 C         138.6028  139.4447  166.1497 C.3     1  UNL1        0.0533
     19 C         138.8748  138.3290  165.1846 C.3     1  UNL1        0.0057
     20 C         139.2855  138.6394  163.7757 C.3     1  UNL1        0.0172
     21 C         139.6826  137.5293  162.8484 C.3     1  UNL1        0.0688
     22 N         141.1257  137.1422  162.7166 N.3     1  UNL1       -0.2937
     23 H         141.1428  136.1781  162.3838 H       1  UNL1        0.1236
     24 C         142.0336  137.9270  161.8166 C.3     1  UNL1        0.0956
     25 C         143.0776  138.8284  162.4058 C.ar    1  UNL1       -0.0062
     26 C         143.5377  138.6203  163.8183 C.ar    1  UNL1       -0.0006
     27 C         144.5818  139.5218  164.4075 C.ar    1  UNL1        0.0294
     28 C         145.1659  140.6314  163.5843 C.ar    1  UNL1        0.1401
     29 F         146.2099  141.5328  164.1736 F       1  UNL1       -0.2042
     30 C         144.7058  140.8395  162.1719 C.ar    1  UNL1        0.0294
     31 C         143.6617  139.9381  161.5826 C.ar    1  UNL1       -0.0006
@<TRIPOS>BOND
     1     9    10    1
     2    10    11   ar
     3    11    12   ar
     4    12     8    1
     5     8     1    1
     6     1    18    1
     7    18    19    1
     8    19    20    1
     9    20    21    1
    10    21    22    1
    11    22    24    1
    12    24    25    1
    13    25    26   ar
    14    26    27   ar
    15    27    28   ar
    16    28    29    1
    17    28    30   ar
    18    30    31   ar
    19     1     2    1
    20     2     3    2
    21     2     4   am
    22     4     5    1
    23    12    13   ar
    24    13    14   ar
    25    14    15    1
    26    14    16   ar
    27    16    17    1
    28    16    10   ar
    29    31    25   ar
    30    22    23    1
    31     4     6    1
    32     5     7    1
@<TRIPOS>MOLECULE
*****
 31 32 0 0 0
SMALL
GASTEIGER

@<TRIPOS>ATOM
      1 C         142.3102  141.8183  167.4189 C.3     1  UNL1        0.2430
      2 C         143.0475  141.6103  168.7086 C.2     1  UNL1        0.2845
      3 O         143.9069  142.7059  169.2663 O.2     1  UNL1       -0.2691
      4 N         142.9253  140.3067  169.4405 N.am    1  UNL1       -0.1940
      5 O         143.6626  140.0987  170.7301 O.3     1  UNL1       -0.2951
      6 H         142.3612  139.5877  169.0745 H       1  UNL1        0.1823
      7 H         144.1670  140.8983  170.9468 H       1  UNL1        0.2414
      8 O         140.8223  142.0087  167.4279 O.3     1  UNL1       -0.4699
      9 C         139.0225  137.7954  164.9767 C.3     1  UNL1        0.0335
     10 C         139.0811  139.2870  165.1234 C.ar    1  UNL1        0.0083
     11 C         139.9224  139.9020  166.2023 C.ar    1  UNL1        0.0349
     12 C         139.9810  141.3937  166.3490 C.ar    1  UNL1        0.1386
     13 C         139.1983  142.2703  165.4169 C.ar    1  UNL1        0.0349
     14 C         138.3571  141.6553  164.3381 C.ar    1  UNL1        0.0083
     15 C         137.5743  142.5320  163.4059 C.3     1  UNL1        0.0335
     16 C         138.2985  140.1637  164.1913 C.ar    1  UNL1        0.1323
     17 F         137.4571  139.5487  163.1124 F       1  UNL1       -0.2048
     18 C         143.0607  141.8360  166.1204 C.3     1  UNL1        0.0533
     19 C         143.5171  140.5486  165.5003 C.3     1  UNL1        0.0057
     20 C         144.3270  140.5699  164.2379 C.3     1  UNL1        0.0172
     21 C         145.3668  141.6313  164.0317 C.3     1  UNL1        0.0688
     22 N         145.8179  141.9797  162.6443 N.3     1  UNL1       -0.2937
     23 H         145.9408  141.0990  162.1447 H       1  UNL1        0.1236
     24 C         144.9639  142.8549  161.7755 C.3     1  UNL1        0.0956
     25 C         143.6994  143.4487  162.3218 C.ar    1  UNL1       -0.0062
     26 C         142.3752  142.8247  161.9943 C.ar    1  UNL1       -0.0006
     27 C         141.1107  143.4186  162.5406 C.ar    1  UNL1        0.0294
     28 C         141.1704  144.6364  163.4143 C.ar    1  UNL1        0.1401
     29 F         139.9059  145.2302  163.9606 F       1  UNL1       -0.2042
     30 C         142.4946  145.2603  163.7418 C.ar    1  UNL1        0.0294
     31 C         143.7591  144.6665  163.1955 C.ar    1  UNL1       -0.0006
@<TRIPOS>BOND
     1     9    10    1
     2    10    11   ar
     3    11    12   ar
     4    12     8    1
     5     8     1    1
     6     1    18    1
     7    18    19    1
     8    19    20    1
     9    20    21    1
    10    21    22    1
    11    22    24    1
    12    24    25    1
    13    25    26   ar
    14    26    27   ar
    15    27    28   ar
    16    28    29    1
    17    28    30   ar
    18    30    31   ar
    19     1     2    1
    20     2     3    2
    21     2     4   am
    22     4     5    1
    23    12    13   ar
    24    13    14   ar
    25    14    15    1
    26    14    16   ar
    27    16    17    1
    28    16    10   ar
    29    31    25   ar
    30    22    23    1
    31     4     6    1
    32     5     7    1
@<TRIPOS>MOLECULE
*****
 31 32 0 0 0
SMALL
GASTEIGER

@<TRIPOS>ATOM
      1 C         138.4857  143.1604  162.2874 C.3     1  UNL1        0.2430
      2 C         139.4683  144.2468  161.9643 C.2     1  UNL1        0.2845
      3 O         140.4279  144.0754  160.8243 O.2     1  UNL1       -0.2691
      4 N         139.4911  145.5047  162.7812 N.am    1  UNL1       -0.1940
      5 O         140.4736  146.5910  162.4581 O.3     1  UNL1       -0.2951
      6 H         138.8613  145.6172  163.5294 H       1  UNL1        0.1823
      7 H         141.0152  146.3221  161.6996 H       1  UNL1        0.2414
      8 O         137.8688  143.0890  163.6528 O.3     1  UNL1       -0.4699
      9 C         138.2765  138.5193  166.0924 C.3     1  UNL1        0.0335
     10 C         138.6988  139.9499  165.9348 C.ar    1  UNL1        0.0083
     11 C         138.0727  140.8041  164.8726 C.ar    1  UNL1        0.0349
     12 C         138.4950  142.2348  164.7150 C.ar    1  UNL1        0.1386
     13 C         139.5436  142.8112  165.6195 C.ar    1  UNL1        0.0349
     14 C         140.1698  141.9570  166.6816 C.ar    1  UNL1        0.0083
     15 C         141.2184  142.5334  167.5862 C.3     1  UNL1        0.0335
     16 C         139.7474  140.5263  166.8393 C.ar    1  UNL1        0.1323
     17 F         140.3737  139.6721  167.9014 F       1  UNL1       -0.2048
     18 C         138.1200  142.1455  161.2452 C.3     1  UNL1        0.0533
     19 C         138.7348  140.7778  161.2820 C.3     1  UNL1        0.0057
     20 C         137.8596  139.5606  161.2318 C.3     1  UNL1        0.0172
     21 C         138.4537  138.2002  161.4475 C.3     1  UNL1        0.0688
     22 N         138.9360  137.8000  162.8103 N.3     1  UNL1       -0.2937
     23 H         138.4109  136.9667  163.0754 H       1  UNL1        0.1236
     24 C         140.3862  137.4863  163.0304 C.3     1  UNL1        0.0956
     25 C         141.2712  138.4786  163.7247 C.ar    1  UNL1       -0.0062
     26 C         142.0099  138.0830  164.9689 C.ar    1  UNL1       -0.0006
     27 C         142.8949  139.0754  165.6631 C.ar    1  UNL1        0.0294
     28 C         143.0413  140.4633  165.1132 C.ar    1  UNL1        0.1401
     29 F         143.9263  141.4556  165.8075 F       1  UNL1       -0.2042
     30 C         142.3027  140.8588  163.8691 C.ar    1  UNL1        0.0294
     31 C         141.4176  139.8665  163.1748 C.ar    1  UNL1       -0.0006
@<TRIPOS>BOND
     1     9    10    1
     2    10    11   ar
     3    11    12   ar
     4    12     8    1
     5     8     1    1
     6     1    18    1
     7    18    19    1
     8    19    20    1
     9    20    21    1
    10    21    22    1
    11    22    24    1
    12    24    25    1
    13    25    26   ar
    14    26    27   ar
    15    27    28   ar
    16    28    29    1
    17    28    30   ar
    18    30    31   ar
    19     1     2    1
    20     2     3    2
    21     2     4   am
    22     4     5    1
    23    12    13   ar
    24    13    14   ar
    25    14    15    1
    26    14    16   ar
    27    16    17    1
    28    16    10   ar
    29    31    25   ar
    30    22    23    1
    31     4     6    1
    32     5     7    1
@<TRIPOS>MOLECULE
*****
 31 32 0 0 0
SMALL
GASTEIGER

@<TRIPOS>ATOM
      1 C         139.1337  142.6101  162.5745 C.3     1  UNL1        0.2430
      2 C         139.0987  144.1082  162.5082 C.2     1  UNL1        0.2845
      3 O         137.7889  144.8329  162.6040 O.2     1  UNL1       -0.2691
      4 N         140.3737  144.8817  162.3461 N.am    1  UNL1       -0.1940
      5 O         140.3388  146.3798  162.2798 O.3     1  UNL1       -0.2951
      6 H         141.2334  144.4061  162.2833 H       1  UNL1        0.1823
      7 H         139.4215  146.6855  162.3563 H       1  UNL1        0.2414
      8 O         140.4402  141.8980  162.7643 O.3     1  UNL1       -0.4699
      9 C         144.5744  143.4473  165.5043 C.3     1  UNL1        0.0335
     10 C         143.2346  142.7758  165.4422 C.ar    1  UNL1        0.0083
     11 C         142.5073  142.6727  164.1344 C.ar    1  UNL1        0.0349
     12 C         141.1675  142.0011  164.0722 C.ar    1  UNL1        0.1386
     13 C         140.5549  141.4327  165.3179 C.ar    1  UNL1        0.0349
     14 C         141.2822  141.5359  166.6257 C.ar    1  UNL1        0.0083
     15 C         140.6696  140.9675  167.8714 C.3     1  UNL1        0.0335
     16 C         142.6220  142.2074  166.6878 C.ar    1  UNL1        0.1323
     17 F         143.3493  142.3105  167.9957 F       1  UNL1       -0.2048
     18 C         137.8621  141.8240  162.4511 C.3     1  UNL1        0.0533
     19 C         137.7723  140.4460  163.0368 C.3     1  UNL1        0.0057
     20 C         138.0197  139.2458  162.1717 C.3     1  UNL1        0.0172
     21 C         138.6790  138.0283  162.7489 C.3     1  UNL1        0.0688
     22 N         139.2418  138.0680  164.1387 N.3     1  UNL1       -0.2937
     23 H         138.5295  137.6783  164.7561 H       1  UNL1        0.1236
     24 C         140.5229  137.3524  164.4497 C.3     1  UNL1        0.0956
     25 C         141.8311  138.0799  164.3523 C.ar    1  UNL1       -0.0062
     26 C         142.3024  138.6013  163.0272 C.ar    1  UNL1       -0.0006
     27 C         143.6106  139.3288  162.9298 C.ar    1  UNL1        0.0294
     28 C         144.4474  139.5349  164.1575 C.ar    1  UNL1        0.1401
     29 F         145.7555  140.2623  164.0601 F       1  UNL1       -0.2042
     30 C         143.9761  139.0134  165.4826 C.ar    1  UNL1        0.0294
     31 C         142.6679  138.2859  165.5801 C.ar    1  UNL1       -0.0006
@<TRIPOS>BOND
     1     9    10    1
     2    10    11   ar
     3    11    12   ar
     4    12     8    1
     5     8     1    1
     6     1    18    1
     7    18    19    1
     8    19    20    1
     9    20    21    1
    10    21    22    1
    11    22    24    1
    12    24    25    1
    13    25    26   ar
    14    26    27   ar
    15    27    28   ar
    16    28    29    1
    17    28    30   ar
    18    30    31   ar
    19     1     2    1
    20     2     3    2
    21     2     4   am
    22     4     5    1
    23    12    13   ar
    24    13    14   ar
    25    14    15    1
    26    14    16   ar
    27    16    17    1
    28    16    10   ar
    29    31    25   ar
    30    22    23    1
    31     4     6    1
    32     5     7    1
