@<TRIPOS>MOLECULE
*****
 31 34 0 0 0
SMALL
GASTEIGER

@<TRIPOS>ATOM
      1 C         141.1402  144.9828  159.5867 C.ar    1  UNL1        0.0537
      2 C         140.2967  145.6044  160.6601 C.ar    1  UNL1        0.0046
      3 C         140.1724  144.9365  161.9974 C.ar    1  UNL1        0.0017
      4 C         140.8917  143.6470  162.2614 C.ar    1  UNL1        0.0199
      5 C         141.7352  143.0253  161.1880 C.ar    1  UNL1        0.0017
      6 C         141.8594  143.6932  159.8507 C.ar    1  UNL1        0.0046
      7 C         140.7675  142.9790  163.5987 C.ar    1  UNL1        0.1086
      8 N         139.5120  142.2389  163.9537 N.ar    1  UNL1       -0.2419
      9 C         139.3878  141.5710  165.2910 C.ar    1  UNL1        0.0960
     10 C         140.5190  141.6431  166.2733 C.ar    1  UNL1        0.0153
     11 C         141.7745  142.3832  165.9183 C.ar    1  UNL1        0.0298
     12 C         141.8988  143.0511  164.5810 C.ar    1  UNL1        0.1574
     13 F         143.1543  143.7912  164.2261 F       1  UNL1       -0.2026
     14 C         140.3948  140.9752  167.6107 C.3     1  UNL1        0.1008
     15 N         140.1859  141.8013  168.8451 N.3     1  UNL1       -0.2688
     16 C         139.7070  141.5231  170.2391 C.3     1  UNL1        0.0738
     17 C         139.8905  142.9696  170.5908 C.3     1  UNL1        0.0347
     18 C         140.3694  143.2479  169.1969 C.3     1  UNL1        0.0738
     19 N         140.1115  145.6287  157.2901 N.am    1  UNL1       -0.2794
     20 C         141.2644  145.6507  158.2494 C.2     1  UNL1        0.2495
     21 O         142.5415  146.3406  157.8714 O.2     1  UNL1       -0.2698
     22 H         139.2732  145.1759  157.5382 H       1  UNL1        0.1552
     23 N         138.7320  148.2447  156.7860 N.pl3   1  UNL1       -0.3560
     24 C         139.5459  147.6046  155.7007 C.ar    1  UNL1        0.0552
     25 C         139.6702  148.2725  154.3634 C.ar    1  UNL1        0.0153
     26 C         140.4841  147.6325  153.2781 C.ar    1  UNL1        0.0013
     27 C         141.1738  146.3246  153.5301 C.ar    1  UNL1        0.0014
     28 C         141.0496  145.6567  154.8674 C.ar    1  UNL1        0.0159
     29 C         140.2357  146.2967  155.9527 C.ar    1  UNL1        0.0636
     30 H         138.2793  149.1031  156.6206 H       1  UNL1        0.1424
     31 H         138.6505  147.8063  157.6637 H       1  UNL1        0.1424
@<TRIPOS>BOND
     1    23    24    1
     2    24    25   ar
     3    25    26   ar
     4    26    27   ar
     5    27    28   ar
     6    28    29   ar
     7    29    19    1
     8    19    20   am
     9    20    21    2
    10    20     1    1
    11     1     2   ar
    12     2     3   ar
    13     3     4   ar
    14     4     7    1
    15     7     8   ar
    16     8     9   ar
    17     9    10   ar
    18    10    14    1
    19    14    15    1
    20    15    16    1
    21    16    17    1
    22    17    18    1
    23    10    11   ar
    24    11    12   ar
    25    12    13    1
    26     4     5   ar
    27     5     6   ar
    28    29    24   ar
    29     6     1   ar
    30    12     7   ar
    31    18    15    1
    32    23    30    1
    33    23    31    1
    34    19    22    1
@<TRIPOS>MOLECULE
*****
 31 34 0 0 0
SMALL
GASTEIGER

@<TRIPOS>ATOM
      1 C         140.3962  144.8388  158.8721 C.ar    1  UNL1        0.0537
      2 C         139.7705  143.4841  158.7196 C.ar    1  UNL1        0.0046
      3 C         139.4747  142.6537  159.9331 C.ar    1  UNL1        0.0017
      4 C         139.8045  143.1779  161.2993 C.ar    1  UNL1        0.0199
      5 C         140.4301  144.5327  161.4518 C.ar    1  UNL1        0.0017
      6 C         140.7260  145.3631  160.2382 C.ar    1  UNL1        0.0046
      7 C         139.5086  142.3475  162.5129 C.ar    1  UNL1        0.1086
      8 N         140.4257  141.2234  162.8943 N.ar    1  UNL1       -0.2419
      9 C         140.1299  140.3930  164.1078 C.ar    1  UNL1        0.0960
     10 C         138.9170  140.6866  164.9401 C.ar    1  UNL1        0.0153
     11 C         138.0000  141.8107  164.5588 C.ar    1  UNL1        0.0298
     12 C         138.2958  142.6412  163.3452 C.ar    1  UNL1        0.1574
     13 F         137.3787  143.7652  162.9638 F       1  UNL1       -0.2026
     14 C         138.6212  139.8562  166.1538 C.3     1  UNL1        0.1008
     15 N         139.5123  139.9429  167.3572 N.3     1  UNL1       -0.2688
     16 C         139.2955  140.1777  168.8229 C.3     1  UNL1        0.0738
     17 C         140.7725  140.0655  169.0592 C.3     1  UNL1        0.0347
     18 C         140.9893  139.8306  167.5937 C.3     1  UNL1        0.0738
     19 N         139.6019  145.9742  156.6744 N.am    1  UNL1       -0.2794
     20 C         140.6920  145.6693  157.6585 C.2     1  UNL1        0.2495
     21 O         142.0781  146.1948  157.4290 O.2     1  UNL1       -0.2698
     22 H         138.6922  145.6292  156.8250 H       1  UNL1        0.1552
     23 N         138.5581  148.7804  156.4861 N.pl3   1  UNL1       -0.3560
     24 C         139.3758  148.2077  155.3666 C.ar    1  UNL1        0.0552
     25 C         139.6717  149.0381  154.1530 C.ar    1  UNL1        0.0153
     26 C         140.4894  148.4653  153.0335 C.ar    1  UNL1        0.0013
     27 C         141.0113  147.0622  153.1276 C.ar    1  UNL1        0.0014
     28 C         140.7155  146.2319  154.3412 C.ar    1  UNL1        0.0159
     29 C         139.8977  146.8046  155.4607 C.ar    1  UNL1        0.0636
     30 H         138.2156  149.7014  156.4243 H       1  UNL1        0.1424
     31 H         138.3639  148.2354  157.2826 H       1  UNL1        0.1424
@<TRIPOS>BOND
     1    23    24    1
     2    24    25   ar
     3    25    26   ar
     4    26    27   ar
     5    27    28   ar
     6    28    29   ar
     7    29    19    1
     8    19    20   am
     9    20    21    2
    10    20     1    1
    11     1     2   ar
    12     2     3   ar
    13     3     4   ar
    14     4     7    1
    15     7     8   ar
    16     8     9   ar
    17     9    10   ar
    18    10    14    1
    19    14    15    1
    20    15    16    1
    21    16    17    1
    22    17    18    1
    23    10    11   ar
    24    11    12   ar
    25    12    13    1
    26     4     5   ar
    27     5     6   ar
    28    29    24   ar
    29     6     1   ar
    30    12     7   ar
    31    18    15    1
    32    23    30    1
    33    23    31    1
    34    19    22    1
@<TRIPOS>MOLECULE
*****
 31 34 0 0 0
SMALL
GASTEIGER

@<TRIPOS>ATOM
      1 C         142.3150  143.1204  164.8395 C.ar    1  UNL1        0.0537
      2 C         143.1375  144.2362  164.2663 C.ar    1  UNL1        0.0046
      3 C         142.9293  144.6678  162.8450 C.ar    1  UNL1        0.0017
      4 C         141.8987  143.9836  161.9967 C.ar    1  UNL1        0.0199
      5 C         141.0762  142.8678  162.5699 C.ar    1  UNL1        0.0017
      6 C         141.2844  142.4362  163.9913 C.ar    1  UNL1        0.0046
      7 C         141.6905  144.4151  160.5753 C.ar    1  UNL1        0.1086
      8 N         142.6392  143.9594  159.5065 N.ar    1  UNL1       -0.2419
      9 C         142.4310  144.3909  158.0851 C.ar    1  UNL1        0.0960
     10 C         141.2741  145.2781  157.7325 C.ar    1  UNL1        0.0153
     11 C         140.3254  145.7338  158.8012 C.ar    1  UNL1        0.0298
     12 C         140.5336  145.3023  160.2226 C.ar    1  UNL1        0.1574
     13 F         139.5848  145.7580  161.2914 F       1  UNL1       -0.2026
     14 C         141.0659  145.7097  156.3110 C.3     1  UNL1        0.1008
     15 N         139.6970  145.6467  155.7010 N.3     1  UNL1       -0.2688
     16 C         138.7731  144.5424  155.2802 C.3     1  UNL1        0.0738
     17 C         137.7611  145.5576  154.8382 C.3     1  UNL1        0.0347
     18 C         138.6850  146.6618  155.2590 C.3     1  UNL1        0.0738
     19 N         141.4117  142.0171  167.0113 N.am    1  UNL1       -0.2794
     20 C         142.5232  142.6889  166.2610 C.2     1  UNL1        0.2495
     21 O         143.8431  142.9291  166.9320 O.2     1  UNL1       -0.2698
     22 H         140.5454  141.8595  166.5709 H       1  UNL1        0.1552
     23 N         140.2554  143.6376  169.2557 N.pl3   1  UNL1       -0.3560
     24 C         141.0417  142.3958  169.5549 C.ar    1  UNL1        0.0552
     25 C         141.2500  141.9642  170.9763 C.ar    1  UNL1        0.0153
     26 C         142.0363  140.7224  171.2755 C.ar    1  UNL1        0.0013
     27 C         142.6145  139.9122  170.1534 C.ar    1  UNL1        0.0014
     28 C         142.4062  140.3437  168.7320 C.ar    1  UNL1        0.0159
     29 C         141.6199  141.5856  168.4328 C.ar    1  UNL1        0.0636
     30 H         139.8759  144.1694  169.9922 H       1  UNL1        0.1424
     31 H         140.1187  143.9209  168.3228 H       1  UNL1        0.1424
@<TRIPOS>BOND
     1    23    24    1
     2    24    25   ar
     3    25    26   ar
     4    26    27   ar
     5    27    28   ar
     6    28    29   ar
     7    29    19    1
     8    19    20   am
     9    20    21    2
    10    20     1    1
    11     1     2   ar
    12     2     3   ar
    13     3     4   ar
    14     4     7    1
    15     7     8   ar
    16     8     9   ar
    17     9    10   ar
    18    10    14    1
    19    14    15    1
    20    15    16    1
    21    16    17    1
    22    17    18    1
    23    10    11   ar
    24    11    12   ar
    25    12    13    1
    26     4     5   ar
    27     5     6   ar
    28    29    24   ar
    29     6     1   ar
    30    12     7   ar
    31    18    15    1
    32    23    30    1
    33    23    31    1
    34    19    22    1
@<TRIPOS>MOLECULE
*****
 31 34 0 0 0
SMALL
GASTEIGER

@<TRIPOS>ATOM
      1 C         141.3963  143.2480  163.7221 C.ar    1  UNL1        0.0537
      2 C         140.8061  144.5887  163.3993 C.ar    1  UNL1        0.0046
      3 C         140.6928  145.0341  161.9715 C.ar    1  UNL1        0.0017
      4 C         141.1697  144.1389  160.8665 C.ar    1  UNL1        0.0199
      5 C         141.7600  142.7982  161.1893 C.ar    1  UNL1        0.0017
      6 C         141.8733  142.3527  162.6171 C.ar    1  UNL1        0.0046
      7 C         141.0565  144.5843  159.4386 C.ar    1  UNL1        0.1086
      8 N         142.0652  145.5364  158.8677 N.ar    1  UNL1       -0.2419
      9 C         141.9520  145.9818  157.4398 C.ar    1  UNL1        0.0960
     10 C         140.8300  145.4752  156.5829 C.ar    1  UNL1        0.0153
     11 C         139.8212  144.5232  157.1538 C.ar    1  UNL1        0.0298
     12 C         139.9344  144.0777  158.5816 C.ar    1  UNL1        0.1574
     13 F         138.9256  143.1257  159.1526 F       1  UNL1       -0.2026
     14 C         140.7167  145.9207  155.1550 C.3     1  UNL1        0.1008
     15 N         140.1656  147.2784  154.8344 N.3     1  UNL1       -0.2688
     16 C         139.1350  148.1774  155.4507 C.3     1  UNL1        0.0738
     17 C         139.3862  149.1986  154.3811 C.3     1  UNL1        0.0347
     18 C         140.4167  148.2996  153.7649 C.3     1  UNL1        0.0738
     19 N         142.6434  141.9153  165.5711 N.am    1  UNL1       -0.2794
     20 C         141.5096  142.8025  165.1500 C.2     1  UNL1        0.2495
     21 O         140.4891  143.2443  166.1566 O.2     1  UNL1       -0.2698
     22 H         143.3132  141.6253  164.9104 H       1  UNL1        0.1552
     23 N         141.8942  139.1117  166.3318 N.pl3   1  UNL1       -0.3560
     24 C         142.3821  140.0681  167.3794 C.ar    1  UNL1        0.0552
     25 C         142.4954  139.6227  168.8072 C.ar    1  UNL1        0.0153
     26 C         142.9833  140.5791  169.8547 C.ar    1  UNL1        0.0013
     27 C         143.3578  141.9809  169.4744 C.ar    1  UNL1        0.0014
     28 C         143.2445  142.4263  168.0466 C.ar    1  UNL1        0.0159
     29 C         142.7567  141.4699  166.9990 C.ar    1  UNL1        0.0636
     30 H         141.6484  138.1917  166.5815 H       1  UNL1        0.1424
     31 H         141.8199  139.4040  165.3947 H       1  UNL1        0.1424
@<TRIPOS>BOND
     1    23    24    1
     2    24    25   ar
     3    25    26   ar
     4    26    27   ar
     5    27    28   ar
     6    28    29   ar
     7    29    19    1
     8    19    20   am
     9    20    21    2
    10    20     1    1
    11     1     2   ar
    12     2     3   ar
    13     3     4   ar
    14     4     7    1
    15     7     8   ar
    16     8     9   ar
    17     9    10   ar
    18    10    14    1
    19    14    15    1
    20    15    16    1
    21    16    17    1
    22    17    18    1
    23    10    11   ar
    24    11    12   ar
    25    12    13    1
    26     4     5   ar
    27     5     6   ar
    28    29    24   ar
    29     6     1   ar
    30    12     7   ar
    31    18    15    1
    32    23    30    1
    33    23    31    1
    34    19    22    1
@<TRIPOS>MOLECULE
*****
 31 34 0 0 0
SMALL
GASTEIGER

@<TRIPOS>ATOM
      1 C         140.0755  138.6168  158.9046 C.ar    1  UNL1        0.0537
      2 C         138.8442  139.2318  159.5009 C.ar    1  UNL1        0.0046
      3 C         138.7847  139.5148  160.9727 C.ar    1  UNL1        0.0017
      4 C         139.9564  139.1827  161.8483 C.ar    1  UNL1        0.0199
      5 C         141.1877  138.5676  161.2520 C.ar    1  UNL1        0.0017
      6 C         141.2473  138.2846  159.7802 C.ar    1  UNL1        0.0046
      7 C         139.8969  139.4657  163.3202 C.ar    1  UNL1        0.1086
      8 N         140.5388  140.7038  163.8724 N.ar    1  UNL1       -0.2419
      9 C         140.4794  140.9868  165.3443 C.ar    1  UNL1        0.0960
     10 C         139.7780  140.0316  166.2639 C.ar    1  UNL1        0.0153
     11 C         139.1361  138.7935  165.7116 C.ar    1  UNL1        0.0298
     12 C         139.1956  138.5105  164.2398 C.ar    1  UNL1        0.1574
     13 F         138.5537  137.2724  163.6876 F       1  UNL1       -0.2026
     14 C         139.7185  140.3146  167.7358 C.3     1  UNL1        0.1008
     15 N         140.8652  139.9259  168.6212 N.3     1  UNL1       -0.2688
     16 C         141.0518  139.7496  170.0991 C.3     1  UNL1        0.0738
     17 C         142.4869  139.3762  169.8733 C.3     1  UNL1        0.0347
     18 C         142.3003  139.5524  168.3955 C.3     1  UNL1        0.0738
     19 N         139.4244  137.1390  156.8693 N.am    1  UNL1       -0.2794
     20 C         140.1350  138.3338  157.4327 C.2     1  UNL1        0.2495
     21 O         140.9052  139.2457  156.5242 O.2     1  UNL1       -0.2698
     22 H         138.9189  136.5405  157.4656 H       1  UNL1        0.1552
     23 N         137.2749  138.1798  155.0536 N.pl3   1  UNL1       -0.3560
     24 C         138.4092  137.3764  154.4896 C.ar    1  UNL1        0.0552
     25 C         138.4687  137.0934  153.0178 C.ar    1  UNL1        0.0153
     26 C         139.6030  136.2901  152.4538 C.ar    1  UNL1        0.0013
     27 C         140.6777  135.7697  153.3616 C.ar    1  UNL1        0.0014
     28 C         140.6181  136.0527  154.8334 C.ar    1  UNL1        0.0159
     29 C         139.4839  136.8561  155.3974 C.ar    1  UNL1        0.0636
     30 H         136.5696  138.5213  154.4578 H       1  UNL1        0.1424
     31 H         137.2359  138.3655  156.0197 H       1  UNL1        0.1424
@<TRIPOS>BOND
     1    23    24    1
     2    24    25   ar
     3    25    26   ar
     4    26    27   ar
     5    27    28   ar
     6    28    29   ar
     7    29    19    1
     8    19    20   am
     9    20    21    2
    10    20     1    1
    11     1     2   ar
    12     2     3   ar
    13     3     4   ar
    14     4     7    1
    15     7     8   ar
    16     8     9   ar
    17     9    10   ar
    18    10    14    1
    19    14    15    1
    20    15    16    1
    21    16    17    1
    22    17    18    1
    23    10    11   ar
    24    11    12   ar
    25    12    13    1
    26     4     5   ar
    27     5     6   ar
    28    29    24   ar
    29     6     1   ar
    30    12     7   ar
    31    18    15    1
    32    23    30    1
    33    23    31    1
    34    19    22    1
@<TRIPOS>MOLECULE
*****
 31 34 0 0 0
SMALL
GASTEIGER

@<TRIPOS>ATOM
      1 C         140.6037  139.5420  164.7098 C.ar    1  UNL1        0.0537
      2 C         140.9434  140.6083  163.7109 C.ar    1  UNL1        0.0046
      3 C         141.1129  140.2533  162.2635 C.ar    1  UNL1        0.0017
      4 C         140.9428  138.8322  161.8148 C.ar    1  UNL1        0.0199
      5 C         140.6031  137.7659  162.8137 C.ar    1  UNL1        0.0017
      6 C         140.4336  138.1209  164.2612 C.ar    1  UNL1        0.0046
      7 C         141.1123  138.4772  160.3673 C.ar    1  UNL1        0.1086
      8 N         139.9480  138.5838  159.4276 N.ar    1  UNL1       -0.2419
      9 C         140.1175  138.2288  157.9801 C.ar    1  UNL1        0.0960
     10 C         141.4513  137.7673  157.4723 C.ar    1  UNL1        0.0153
     11 C         142.6156  137.6607  158.4120 C.ar    1  UNL1        0.0298
     12 C         142.4461  138.0157  159.8595 C.ar    1  UNL1        0.1574
     13 F         143.6104  137.9091  160.7992 F       1  UNL1       -0.2026
     14 C         141.6208  137.4123  156.0248 C.3     1  UNL1        0.1008
     15 N         142.2149  136.0894  155.6416 N.3     1  UNL1       -0.2688
     16 C         141.6695  134.7152  155.3881 C.3     1  UNL1        0.0738
     17 C         143.0551  134.2184  155.0997 C.3     1  UNL1        0.0347
     18 C         143.6005  135.5925  155.3532 C.3     1  UNL1        0.0738
     19 N         141.4474  140.7674  166.8397 N.am    1  UNL1       -0.2794
     20 C         140.4342  139.8970  166.1573 C.2     1  UNL1        0.2495
     21 O         139.2514  139.3815  166.9224 O.2     1  UNL1       -0.2698
     22 H         142.2237  141.1058  166.3376 H       1  UNL1        0.1552
     23 N         142.8428  139.1580  168.9523 N.pl3   1  UNL1       -0.3560
     24 C         141.9755  140.3177  169.3435 C.ar    1  UNL1        0.0552
     25 C         141.8060  140.6727  170.7910 C.ar    1  UNL1        0.0153
     26 C         140.9388  141.8324  171.1822 C.ar    1  UNL1        0.0013
     27 C         140.2411  142.6371  170.1260 C.ar    1  UNL1        0.0014
     28 C         140.4106  142.2821  168.6785 C.ar    1  UNL1        0.0159
     29 C         141.2779  141.1224  168.2873 C.ar    1  UNL1        0.0636
     30 H         143.3007  138.6299  169.6456 H       1  UNL1        0.1424
     31 H         142.9540  138.9250  168.0023 H       1  UNL1        0.1424
@<TRIPOS>BOND
     1    23    24    1
     2    24    25   ar
     3    25    26   ar
     4    26    27   ar
     5    27    28   ar
     6    28    29   ar
     7    29    19    1
     8    19    20   am
     9    20    21    2
    10    20     1    1
    11     1     2   ar
    12     2     3   ar
    13     3     4   ar
    14     4     7    1
    15     7     8   ar
    16     8     9   ar
    17     9    10   ar
    18    10    14    1
    19    14    15    1
    20    15    16    1
    21    16    17    1
    22    17    18    1
    23    10    11   ar
    24    11    12   ar
    25    12    13    1
    26     4     5   ar
    27     5     6   ar
    28    29    24   ar
    29     6     1   ar
    30    12     7   ar
    31    18    15    1
    32    23    30    1
    33    23    31    1
    34    19    22    1
@<TRIPOS>MOLECULE
*****
 31 34 0 0 0
SMALL
GASTEIGER

@<TRIPOS>ATOM
      1 C         142.8547  138.8684  160.3709 C.ar    1  UNL1        0.0537
      2 C         141.5590  138.9424  161.1229 C.ar    1  UNL1        0.0046
      3 C         141.5512  139.3549  162.5650 C.ar    1  UNL1        0.0017
      4 C         142.8393  139.6933  163.2552 C.ar    1  UNL1        0.0199
      5 C         144.1351  139.6192  162.5032 C.ar    1  UNL1        0.0017
      6 C         144.1428  139.2068  161.0611 C.ar    1  UNL1        0.0046
      7 C         142.8316  140.1057  164.6974 C.ar    1  UNL1        0.1086
      8 N         143.0292  141.5461  165.0666 N.ar    1  UNL1       -0.2419
      9 C         143.0215  141.9586  166.5087 C.ar    1  UNL1        0.0960
     10 C         142.8162  140.9307  167.5816 C.ar    1  UNL1        0.0153
     11 C         142.6186  139.4903  167.2125 C.ar    1  UNL1        0.0298
     12 C         142.6263  139.0779  165.7704 C.ar    1  UNL1        0.1574
     13 F         142.4287  137.6375  165.4012 F       1  UNL1       -0.2026
     14 C         142.8086  141.3432  169.0239 C.3     1  UNL1        0.1008
     15 N         141.5908  141.9923  169.6118 N.3     1  UNL1       -0.2688
     16 C         140.8753  141.9093  170.9276 C.3     1  UNL1        0.0738
     17 C         139.8686  142.9102  170.4432 C.3     1  UNL1        0.0347
     18 C         140.5839  142.9931  169.1275 C.3     1  UNL1        0.0738
     19 N         142.1480  137.2081  158.5017 N.am    1  UNL1       -0.2794
     20 C         142.8624  138.4559  158.9287 C.2     1  UNL1        0.2495
     21 O         143.5846  139.2914  157.9136 O.2     1  UNL1       -0.2698
     22 H         141.6740  136.6597  159.1680 H       1  UNL1        0.1552
     23 N         139.6119  137.2998  156.9018 N.pl3   1  UNL1       -0.3560
     24 C         140.8876  136.8415  156.2596 C.ar    1  UNL1        0.0552
     25 C         140.8954  136.4290  154.8175 C.ar    1  UNL1        0.0153
     26 C         142.1711  135.9707  154.1753 C.ar    1  UNL1        0.0013
     27 C         143.4391  135.9248  154.9752 C.ar    1  UNL1        0.0014
     28 C         143.4314  136.3373  156.4173 C.ar    1  UNL1        0.0159
     29 C         142.1557  136.7956  157.0595 C.ar    1  UNL1        0.0636
     30 H         138.7796  137.3299  156.3767 H       1  UNL1        0.1424
     31 H         139.6068  137.5705  157.8483 H       1  UNL1        0.1424
@<TRIPOS>BOND
     1    23    24    1
     2    24    25   ar
     3    25    26   ar
     4    26    27   ar
     5    27    28   ar
     6    28    29   ar
     7    29    19    1
     8    19    20   am
     9    20    21    2
    10    20     1    1
    11     1     2   ar
    12     2     3   ar
    13     3     4   ar
    14     4     7    1
    15     7     8   ar
    16     8     9   ar
    17     9    10   ar
    18    10    14    1
    19    14    15    1
    20    15    16    1
    21    16    17    1
    22    17    18    1
    23    10    11   ar
    24    11    12   ar
    25    12    13    1
    26     4     5   ar
    27     5     6   ar
    28    29    24   ar
    29     6     1   ar
    30    12     7   ar
    31    18    15    1
    32    23    30    1
    33    23    31    1
    34    19    22    1
@<TRIPOS>MOLECULE
*****
 31 34 0 0 0
SMALL
GASTEIGER

@<TRIPOS>ATOM
      1 C         140.6074  144.2072  160.4656 C.ar    1  UNL1        0.0537
      2 C         140.4620  142.7883  160.9299 C.ar    1  UNL1        0.0046
      3 C         140.7912  142.4255  162.3476 C.ar    1  UNL1        0.0017
      4 C         141.2658  143.4817  163.3011 C.ar    1  UNL1        0.0199
      5 C         141.4112  144.9006  162.8368 C.ar    1  UNL1        0.0017
      6 C         141.0820  145.2634  161.4191 C.ar    1  UNL1        0.0046
      7 C         141.5951  143.1190  164.7189 C.ar    1  UNL1        0.1086
      8 N         143.0149  142.8341  165.1098 N.ar    1  UNL1       -0.2419
      9 C         143.3442  142.4714  166.5275 C.ar    1  UNL1        0.0960
     10 C         142.2536  142.3937  167.5544 C.ar    1  UNL1        0.0153
     11 C         140.8337  142.6786  167.1635 C.ar    1  UNL1        0.0298
     12 C         140.5045  143.0413  165.7458 C.ar    1  UNL1        0.1574
     13 F         139.0846  143.3262  165.3549 F       1  UNL1       -0.2026
     14 C         142.5828  142.0310  168.9722 C.3     1  UNL1        0.1008
     15 N         142.6449  140.5895  169.3825 N.3     1  UNL1       -0.2688
     16 C         142.7444  139.8625  170.6908 C.3     1  UNL1        0.0738
     17 C         142.7326  138.5510  169.9628 C.3     1  UNL1        0.0347
     18 C         142.6330  139.2780  168.6546 C.3     1  UNL1        0.0738
     19 N         140.8841  145.7933  158.4266 N.am    1  UNL1       -0.2794
     20 C         140.2782  144.5699  159.0478 C.2     1  UNL1        0.2495
     21 O         139.3431  143.7090  158.2513 O.2     1  UNL1       -0.2698
     22 H         141.4978  146.3583  158.9494 H       1  UNL1        0.1552
     23 N         142.5994  144.7823  156.1826 N.pl3   1  UNL1       -0.3560
     24 C         141.4125  145.6505  155.8868 C.ar    1  UNL1        0.0552
     25 C         141.0832  146.0132  154.4691 C.ar    1  UNL1        0.0153
     26 C         139.8963  146.8814  154.1733 C.ar    1  UNL1        0.0013
     27 C         139.0387  147.3870  155.2953 C.ar    1  UNL1        0.0014
     28 C         139.3679  147.0243  156.7130 C.ar    1  UNL1        0.0159
     29 C         140.5548  146.1560  157.0088 C.ar    1  UNL1        0.0636
     30 H         143.1623  144.4505  155.4462 H       1  UNL1        0.1424
     31 H         142.8155  144.5443  157.1131 H       1  UNL1        0.1424
@<TRIPOS>BOND
     1    23    24    1
     2    24    25   ar
     3    25    26   ar
     4    26    27   ar
     5    27    28   ar
     6    28    29   ar
     7    29    19    1
     8    19    20   am
     9    20    21    2
    10    20     1    1
    11     1     2   ar
    12     2     3   ar
    13     3     4   ar
    14     4     7    1
    15     7     8   ar
    16     8     9   ar
    17     9    10   ar
    18    10    14    1
    19    14    15    1
    20    15    16    1
    21    16    17    1
    22    17    18    1
    23    10    11   ar
    24    11    12   ar
    25    12    13    1
    26     4     5   ar
    27     5     6   ar
    28    29    24   ar
    29     6     1   ar
    30    12     7   ar
    31    18    15    1
    32    23    30    1
    33    23    31    1
    34    19    22    1
@<TRIPOS>MOLECULE
*****
 31 34 0 0 0
SMALL
GASTEIGER

@<TRIPOS>ATOM
      1 C         142.1611  138.4798  160.2802 C.ar    1  UNL1        0.0537
      2 C         143.5189  138.7313  160.8660 C.ar    1  UNL1        0.0046
      3 C         143.6460  139.3584  162.2226 C.ar    1  UNL1        0.0017
      4 C         142.4153  139.7340  162.9934 C.ar    1  UNL1        0.0199
      5 C         141.0575  139.4825  162.4077 C.ar    1  UNL1        0.0017
      6 C         140.9304  138.8554  161.0510 C.ar    1  UNL1        0.0046
      7 C         142.5423  140.3612  164.3502 C.ar    1  UNL1        0.1086
      8 N         142.7074  141.8467  164.4772 N.ar    1  UNL1       -0.2419
      9 C         142.8344  142.4738  165.8339 C.ar    1  UNL1        0.0960
     10 C         142.7964  141.6155  167.0634 C.ar    1  UNL1        0.0153
     11 C         142.6313  140.1301  166.9363 C.ar    1  UNL1        0.0298
     12 C         142.5043  139.5029  165.5797 C.ar    1  UNL1        0.1574
     13 F         142.3392  138.0174  165.4526 F       1  UNL1       -0.2026
     14 C         142.9234  142.2427  168.4201 C.3     1  UNL1        0.1008
     15 N         141.7050  142.4388  169.2728 N.3     1  UNL1       -0.2688
     16 C         140.4955  143.3235  169.2068 C.3     1  UNL1        0.0738
     17 C         139.9819  142.7161  170.4786 C.3     1  UNL1        0.0347
     18 C         141.1914  141.8315  170.5445 C.3     1  UNL1        0.0738
     19 N         143.1481  137.0076  158.3805 N.am    1  UNL1       -0.2794
     20 C         142.0340  137.8526  158.9234 C.2     1  UNL1        0.2495
     21 O         140.7929  138.0705  158.1097 O.2     1  UNL1       -0.2698
     22 H         143.9627  136.8646  158.9146 H       1  UNL1        0.1552
     23 N         143.4080  134.0349  158.0718 N.pl3   1  UNL1       -0.3560
     24 C         143.1510  134.8941  156.8695 C.ar    1  UNL1        0.0552
     25 C         143.0240  134.2670  155.5128 C.ar    1  UNL1        0.0153
     26 C         142.7669  135.1263  154.3105 C.ar    1  UNL1        0.0013
     27 C         142.6370  136.6126  154.4648 C.ar    1  UNL1        0.0014
     28 C         142.7640  137.2397  155.8215 C.ar    1  UNL1        0.0159
     29 C         143.0210  136.3805  157.0238 C.ar    1  UNL1        0.0636
     30 H         143.4933  133.0593  157.9705 H       1  UNL1        0.1424
     31 H         143.4914  134.4465  158.9622 H       1  UNL1        0.1424
@<TRIPOS>BOND
     1    23    24    1
     2    24    25   ar
     3    25    26   ar
     4    26    27   ar
     5    27    28   ar
     6    28    29   ar
     7    29    19    1
     8    19    20   am
     9    20    21    2
    10    20     1    1
    11     1     2   ar
    12     2     3   ar
    13     3     4   ar
    14     4     7    1
    15     7     8   ar
    16     8     9   ar
    17     9    10   ar
    18    10    14    1
    19    14    15    1
    20    15    16    1
    21    16    17    1
    22    17    18    1
    23    10    11   ar
    24    11    12   ar
    25    12    13    1
    26     4     5   ar
    27     5     6   ar
    28    29    24   ar
    29     6     1   ar
    30    12     7   ar
    31    18    15    1
    32    23    30    1
    33    23    31    1
    34    19    22    1
