@<TRIPOS>MOLECULE
*****
 27 29 0 0 0
SMALL
GASTEIGER

@<TRIPOS>ATOM
      1 C         142.0770  140.0342  167.5301 C.3     1  UNL1        0.1467
      2 C         141.0616  140.3109  168.5989 C.3     1  UNL1        0.0489
      3 C         142.3035  140.2247  169.4355 C.3     1  UNL1        0.0236
      4 C         142.2212  140.4118  170.9215 C.3     1  UNL1        0.0690
      5 N         140.8969  140.6851  171.5708 N.3     1  UNL1       -0.2974
      6 C         139.6550  140.7713  170.7342 C.3     1  UNL1        0.0690
      7 C         139.7373  140.5842  169.2481 C.3     1  UNL1        0.0236
      8 H         140.9862  141.5768  172.0580 H       1  UNL1        0.1232
      9 C         140.1723  140.3010  167.3909 C.ar    1  UNL1       -0.0204
     10 C         138.9722  139.4020  167.3505 C.ar    1  UNL1       -0.0042
     11 C         138.0829  139.3920  166.1426 C.ar    1  UNL1       -0.0003
     12 C         138.3936  140.2811  164.9751 C.ar    1  UNL1       -0.0000
     13 C         139.5937  141.1802  165.0156 C.ar    1  UNL1       -0.0003
     14 C         140.4830  141.1901  166.2235 C.ar    1  UNL1       -0.0042
     15 O         143.1577  139.0211  167.7665 O.3     1  UNL1       -0.3470
     16 C         143.6592  138.1804  166.6300 C.3     1  UNL1        0.1875
     17 C         141.1863  138.1061  163.5269 C.ar    1  UNL1        0.0750
     18 C         142.0189  138.7917  162.4844 C.ar    1  UNL1        0.0346
     19 C         143.3983  139.2735  162.8238 C.ar    1  UNL1        0.1380
     20 CL        144.2309  139.9591  161.7812 Cl      1  UNL1       -0.0614
     21 N         143.9451  139.0697  164.2056 N.ar    1  UNL1       -0.2358
     22 C         143.1125  138.3842  165.2481 C.ar    1  UNL1        0.0897
     23 C         141.7331  137.9024  164.9087 C.ar    1  UNL1        0.0212
     24 F         138.4275  137.1425  162.8482 F       1  UNL1       -0.1659
     25 C         139.8069  137.6243  163.1875 C.3     1  UNL1        0.4187
     26 F         139.6241  137.1531  164.5998 F       1  UNL1       -0.1659
     27 F         139.9898  138.0955  161.7752 F       1  UNL1       -0.1659
@<TRIPOS>BOND
     1    24    25    1
     2    25    26    1
     3    25    27    1
     4    25    17    1
     5    17    18   ar
     6    18    19   ar
     7    19    20    1
     8    19    21   ar
     9    21    22   ar
    10    22    16    1
    11    16    15    1
    12    15     1    1
    13     1     2    1
    14     2     9    1
    15     9    10   ar
    16    10    11   ar
    17    11    12   ar
    18    12    13   ar
    19    13    14   ar
    20     2     3    1
    21     3     4    1
    22     4     5    1
    23     5     6    1
    24     6     7    1
    25    22    23   ar
    26    23    17   ar
    27     7     2    1
    28    14     9   ar
    29     5     8    1
@<TRIPOS>MOLECULE
*****
 27 29 0 0 0
SMALL
GASTEIGER

@<TRIPOS>ATOM
      1 C         140.2751  139.8842  167.8884 C.3     1  UNL1        0.1467
      2 C         140.8285  141.0948  168.5799 C.3     1  UNL1        0.0489
      3 C         140.4639  140.2585  169.7706 C.3     1  UNL1        0.0236
      4 C         140.7126  140.7773  171.1559 C.3     1  UNL1        0.0690
      5 N         141.3258  142.1323  171.3505 N.3     1  UNL1       -0.2974
      6 C         141.6904  142.9686  170.1598 C.3     1  UNL1        0.0690
      7 C         141.4417  142.4498  168.7745 C.3     1  UNL1        0.0236
      8 H         142.1826  141.9936  171.8863 H       1  UNL1        0.1232
      9 C         141.0009  141.5106  167.1490 C.ar    1  UNL1       -0.0204
     10 C         140.5215  142.8580  166.6966 C.ar    1  UNL1       -0.0042
     11 C         140.6939  143.2738  165.2657 C.ar    1  UNL1       -0.0003
     12 C         141.3457  142.3423  164.2873 C.ar    1  UNL1       -0.0000
     13 C         141.8251  140.9948  164.7398 C.ar    1  UNL1       -0.0003
     14 C         141.6527  140.5791  166.1706 C.ar    1  UNL1       -0.0042
     15 O         138.8362  139.5047  168.0772 O.3     1  UNL1       -0.3470
     16 C         138.0998  138.7884  166.9843 C.3     1  UNL1        0.1875
     17 C         138.1004  141.0085  163.6947 C.ar    1  UNL1        0.0750
     18 C         138.6622  140.0384  162.6982 C.ar    1  UNL1        0.0346
     19 C         139.0366  138.6516  163.1303 C.ar    1  UNL1        0.1380
     20 CL        139.5985  137.6815  162.1336 Cl      1  UNL1       -0.0614
     21 N         138.8492  138.2349  164.5589 N.ar    1  UNL1       -0.2358
     22 C         138.2873  139.2050  165.5555 C.ar    1  UNL1        0.0897
     23 C         137.9129  140.5918  165.1234 C.ar    1  UNL1        0.0212
     24 F         137.3516  143.7820  162.8305 F       1  UNL1       -0.1659
     25 C         137.7260  142.3952  163.2626 C.3     1  UNL1        0.4187
     26 F         137.9618  142.0129  161.8315 F       1  UNL1       -0.1659
     27 F         137.4901  142.7775  164.6938 F       1  UNL1       -0.1659
@<TRIPOS>BOND
     1    24    25    1
     2    25    26    1
     3    25    27    1
     4    25    17    1
     5    17    18   ar
     6    18    19   ar
     7    19    20    1
     8    19    21   ar
     9    21    22   ar
    10    22    16    1
    11    16    15    1
    12    15     1    1
    13     1     2    1
    14     2     9    1
    15     9    10   ar
    16    10    11   ar
    17    11    12   ar
    18    12    13   ar
    19    13    14   ar
    20     2     3    1
    21     3     4    1
    22     4     5    1
    23     5     6    1
    24     6     7    1
    25    22    23   ar
    26    23    17   ar
    27     7     2    1
    28    14     9   ar
    29     5     8    1
@<TRIPOS>MOLECULE
*****
 27 29 0 0 0
SMALL
GASTEIGER

@<TRIPOS>ATOM
      1 C         141.9829  142.3589  167.3694 C.3     1  UNL1        0.1467
      2 C         142.3031  141.2821  168.3633 C.3     1  UNL1        0.0489
      3 C         141.8017  142.3504  169.2892 C.3     1  UNL1        0.0236
      4 C         141.7560  142.1008  170.7675 C.3     1  UNL1        0.0690
      5 N         142.2117  140.7828  171.3200 N.3     1  UNL1       -0.2974
      6 C         142.7130  139.7145  170.3942 C.3     1  UNL1        0.0690
      7 C         142.7588  139.9641  168.9158 C.3     1  UNL1        0.0236
      8 H         141.4199  140.3861  171.8261 H       1  UNL1        0.1232
      9 C         142.6933  140.5877  167.0922 C.ar    1  UNL1       -0.0204
     10 C         142.4041  139.1264  166.9167 C.ar    1  UNL1       -0.0042
     11 C         142.7943  138.4320  165.6456 C.ar    1  UNL1       -0.0003
     12 C         143.4737  139.1989  164.5502 C.ar    1  UNL1       -0.0000
     13 C         143.7629  140.6603  164.7257 C.ar    1  UNL1       -0.0003
     14 C         143.3727  141.3546  165.9968 C.ar    1  UNL1       -0.0042
     15 O         140.5832  142.8872  167.2608 O.3     1  UNL1       -0.3470
     16 C         139.8077  142.7009  165.9904 C.3     1  UNL1        0.1875
     17 C         138.7262  138.8997  165.6273 C.ar    1  UNL1        0.0750
     18 C         139.2701  138.5790  164.2666 C.ar    1  UNL1        0.0346
     19 C         139.9931  139.6323  163.4806 C.ar    1  UNL1        0.1380
     20 CL        140.5370  139.3115  162.1199 Cl      1  UNL1       -0.0614
     21 N         140.1723  141.0062  164.0551 N.ar    1  UNL1       -0.2358
     22 C         139.6285  141.3269  165.4158 C.ar    1  UNL1        0.0897
     23 C         138.9055  140.2737  166.2018 C.ar    1  UNL1        0.0212
     24 F         137.2801  136.7933  167.1994 F       1  UNL1       -0.1659
     25 C         138.0032  137.8465  166.4133 C.3     1  UNL1        0.4187
     26 F         138.5714  136.7870  165.5163 F       1  UNL1       -0.1659
     27 F         137.4350  138.9060  167.3103 F       1  UNL1       -0.1659
@<TRIPOS>BOND
     1    24    25    1
     2    25    26    1
     3    25    27    1
     4    25    17    1
     5    17    18   ar
     6    18    19   ar
     7    19    20    1
     8    19    21   ar
     9    21    22   ar
    10    22    16    1
    11    16    15    1
    12    15     1    1
    13     1     2    1
    14     2     9    1
    15     9    10   ar
    16    10    11   ar
    17    11    12   ar
    18    12    13   ar
    19    13    14   ar
    20     2     3    1
    21     3     4    1
    22     4     5    1
    23     5     6    1
    24     6     7    1
    25    22    23   ar
    26    23    17   ar
    27     7     2    1
    28    14     9   ar
    29     5     8    1
@<TRIPOS>MOLECULE
*****
 27 29 0 0 0
SMALL
GASTEIGER

@<TRIPOS>ATOM
      1 C         138.9737  140.9179  162.7459 C.3     1  UNL1        0.1467
      2 C         138.8126  140.2790  164.0934 C.3     1  UNL1        0.0489
      3 C         138.8949  139.0537  163.2323 C.3     1  UNL1        0.0236
      4 C         138.8069  137.6920  163.8552 C.3     1  UNL1        0.0690
      5 N         138.6367  137.5557  165.3393 N.3     1  UNL1       -0.2974
      6 C         138.5544  138.7811  166.2004 C.3     1  UNL1        0.0690
      7 C         138.6424  140.1428  165.5775 C.3     1  UNL1        0.0236
      8 H         139.4296  137.0106  165.6778 H       1  UNL1        0.1232
      9 C         138.7863  141.7264  164.4866 C.ar    1  UNL1       -0.0204
     10 C         137.7834  142.6538  163.8667 C.ar    1  UNL1       -0.0042
     11 C         137.7571  144.1011  164.2599 C.ar    1  UNL1       -0.0003
     12 C         138.7335  144.6210  165.2729 C.ar    1  UNL1       -0.0000
     13 C         139.7364  143.6936  165.8927 C.ar    1  UNL1       -0.0003
     14 C         139.7627  142.2463  165.4995 C.ar    1  UNL1       -0.0042
     15 O         140.0143  140.4078  161.7935 O.3     1  UNL1       -0.3470
     16 C         141.0599  141.3392  161.2559 C.3     1  UNL1        0.1875
     17 C         142.7158  144.0123  163.6772 C.ar    1  UNL1        0.0750
     18 C         141.9012  145.2298  163.3547 C.ar    1  UNL1        0.0346
     19 C         140.8063  145.1505  162.3326 C.ar    1  UNL1        0.1380
     20 CL        139.9917  146.3682  162.0101 Cl      1  UNL1       -0.0614
     21 N         140.5258  143.8537  161.6330 N.ar    1  UNL1       -0.2358
     22 C         141.3403  142.6361  161.9555 C.ar    1  UNL1        0.0897
     23 C         142.4353  142.7154  162.9776 C.ar    1  UNL1        0.0212
     24 F         144.9057  144.1709  165.7215 F       1  UNL1       -0.1659
     25 C         143.8107  144.0916  164.6994 C.3     1  UNL1        0.4187
     26 F         143.6807  142.6189  164.9529 F       1  UNL1       -0.1659
     27 F         143.9408  145.5643  164.4458 F       1  UNL1       -0.1659
@<TRIPOS>BOND
     1    24    25    1
     2    25    26    1
     3    25    27    1
     4    25    17    1
     5    17    18   ar
     6    18    19   ar
     7    19    20    1
     8    19    21   ar
     9    21    22   ar
    10    22    16    1
    11    16    15    1
    12    15     1    1
    13     1     2    1
    14     2     9    1
    15     9    10   ar
    16    10    11   ar
    17    11    12   ar
    18    12    13   ar
    19    13    14   ar
    20     2     3    1
    21     3     4    1
    22     4     5    1
    23     5     6    1
    24     6     7    1
    25    22    23   ar
    26    23    17   ar
    27     7     2    1
    28    14     9   ar
    29     5     8    1
@<TRIPOS>MOLECULE
*****
 27 29 0 0 0
SMALL
GASTEIGER

@<TRIPOS>ATOM
      1 C         140.1389  143.0811  165.0495 C.3     1  UNL1        0.1467
      2 C         141.6336  143.1945  165.1032 C.3     1  UNL1        0.0489
      3 C         141.3257  144.2767  164.1113 C.3     1  UNL1        0.0236
      4 C         142.4391  145.0829  163.5111 C.3     1  UNL1        0.0690
      5 N         143.8606  144.8067  163.9028 N.3     1  UNL1       -0.2974
      6 C         144.1685  143.7245  164.8946 C.3     1  UNL1        0.0690
      7 C         143.0550  142.9183  165.4949 C.3     1  UNL1        0.0236
      8 H         144.2336  145.6743  164.2883 H       1  UNL1        0.1232
      9 C         141.4224  142.0727  166.0764 C.ar    1  UNL1       -0.0204
     10 C         142.2740  140.8405  165.9969 C.ar    1  UNL1       -0.0042
     11 C         142.0628  139.7188  166.9702 C.ar    1  UNL1       -0.0003
     12 C         141.0000  139.8293  168.0229 C.ar    1  UNL1       -0.0000
     13 C         140.1483  141.0617  168.1024 C.ar    1  UNL1       -0.0003
     14 C         140.3596  142.1833  167.1291 C.ar    1  UNL1       -0.0042
     15 O         139.4306  143.1212  163.7278 O.3     1  UNL1       -0.3470
     16 C         138.6728  141.9196  163.2462 C.3     1  UNL1        0.1875
     17 C         138.5747  138.6075  165.4303 C.ar    1  UNL1        0.0750
     18 C         139.7028  137.8310  164.8184 C.ar    1  UNL1        0.0346
     19 C         140.4875  138.4173  163.6824 C.ar    1  UNL1        0.1380
     20 CL        141.6157  137.6407  163.0706 Cl      1  UNL1       -0.0614
     21 N         140.1442  139.7802  163.1584 N.ar    1  UNL1       -0.2358
     22 C         139.0162  140.5567  163.7703 C.ar    1  UNL1        0.0897
     23 C         138.2314  139.9703  164.9062 C.ar    1  UNL1        0.0212
     24 F         137.0052  137.4348  167.7021 F       1  UNL1       -0.1659
     25 C         137.7900  138.0211  166.5662 C.3     1  UNL1        0.4187
     26 F         137.5051  139.4007  167.0815 F       1  UNL1       -0.1659
     27 F         138.0748  136.6415  166.0509 F       1  UNL1       -0.1659
@<TRIPOS>BOND
     1    24    25    1
     2    25    26    1
     3    25    27    1
     4    25    17    1
     5    17    18   ar
     6    18    19   ar
     7    19    20    1
     8    19    21   ar
     9    21    22   ar
    10    22    16    1
    11    16    15    1
    12    15     1    1
    13     1     2    1
    14     2     9    1
    15     9    10   ar
    16    10    11   ar
    17    11    12   ar
    18    12    13   ar
    19    13    14   ar
    20     2     3    1
    21     3     4    1
    22     4     5    1
    23     5     6    1
    24     6     7    1
    25    22    23   ar
    26    23    17   ar
    27     7     2    1
    28    14     9   ar
    29     5     8    1
@<TRIPOS>MOLECULE
*****
 27 29 0 0 0
SMALL
GASTEIGER

@<TRIPOS>ATOM
      1 C         139.9065  140.4914  167.9494 C.3     1  UNL1        0.1467
      2 C         141.1793  140.4691  168.7428 C.3     1  UNL1        0.0489
      3 C         140.1818  140.6089  169.8543 C.3     1  UNL1        0.0236
      4 C         140.6500  140.6805  171.2776 C.3     1  UNL1        0.0690
      5 N         142.1157  140.6123  171.5893 N.3     1  UNL1       -0.2974
      6 C         143.1132  140.4725  170.4778 C.3     1  UNL1        0.0690
      7 C         142.6450  140.4009  169.0545 C.3     1  UNL1        0.0236
      8 H         142.2485  139.8112  172.2066 H       1  UNL1        0.1232
      9 C         141.7347  140.3370  167.3557 C.ar    1  UNL1       -0.0204
     10 C         141.4379  141.3865  166.3259 C.ar    1  UNL1       -0.0042
     11 C         141.9934  141.2544  164.9388 C.ar    1  UNL1       -0.0003
     12 C         142.8455  140.0729  164.5815 C.ar    1  UNL1       -0.0000
     13 C         143.1423  139.0233  165.6113 C.ar    1  UNL1       -0.0003
     14 C         142.5869  139.1555  166.9984 C.ar    1  UNL1       -0.0042
     15 O         138.8325  139.4814  168.2259 O.3     1  UNL1       -0.3470
     16 C         138.0608  138.8772  167.0904 C.3     1  UNL1        0.1875
     17 C         138.6290  140.3249  163.4392 C.ar    1  UNL1        0.0750
     18 C         139.5654  139.3004  162.8706 C.ar    1  UNL1        0.0346
     19 C         140.0004  138.1348  163.7086 C.ar    1  UNL1        0.1380
     20 CL        140.9370  137.1103  163.1399 Cl      1  UNL1       -0.0614
     21 N         139.4989  137.9938  165.1152 N.ar    1  UNL1       -0.2358
     22 C         138.5624  139.0182  165.6838 C.ar    1  UNL1        0.0897
     23 C         138.1274  140.1838  164.8458 C.ar    1  UNL1        0.0212
     24 F         137.7590  142.6561  161.7632 F       1  UNL1       -0.1659
     25 C         138.1940  141.4905  162.6012 C.3     1  UNL1        0.4187
     26 F         136.7929  141.3366  163.1144 F       1  UNL1       -0.1659
     27 F         139.5950  141.6444  162.0880 F       1  UNL1       -0.1659
@<TRIPOS>BOND
     1    24    25    1
     2    25    26    1
     3    25    27    1
     4    25    17    1
     5    17    18   ar
     6    18    19   ar
     7    19    20    1
     8    19    21   ar
     9    21    22   ar
    10    22    16    1
    11    16    15    1
    12    15     1    1
    13     1     2    1
    14     2     9    1
    15     9    10   ar
    16    10    11   ar
    17    11    12   ar
    18    12    13   ar
    19    13    14   ar
    20     2     3    1
    21     3     4    1
    22     4     5    1
    23     5     6    1
    24     6     7    1
    25    22    23   ar
    26    23    17   ar
    27     7     2    1
    28    14     9   ar
    29     5     8    1
@<TRIPOS>MOLECULE
*****
 27 29 0 0 0
SMALL
GASTEIGER

@<TRIPOS>ATOM
      1 C         139.9804  140.4121  167.8563 C.3     1  UNL1        0.1467
      2 C         141.2184  140.4049  168.7032 C.3     1  UNL1        0.0489
      3 C         140.1748  140.5654  169.7686 C.3     1  UNL1        0.0236
      4 C         140.5823  140.6639  171.2088 C.3     1  UNL1        0.0690
      5 N         142.0335  140.6018  171.5835 N.3     1  UNL1       -0.2974
      6 C         143.0770  140.4413  170.5181 C.3     1  UNL1        0.0690
      7 C         142.6695  140.3428  169.0779 C.3     1  UNL1        0.0236
      8 H         142.1395  139.8125  172.2208 H       1  UNL1        0.1232
      9 C         141.8320  140.2468  167.3435 C.ar    1  UNL1       -0.0204
     10 C         141.5550  141.2606  166.2733 C.ar    1  UNL1       -0.0042
     11 C         142.1686  141.1026  164.9136 C.ar    1  UNL1       -0.0003
     12 C         143.0592  139.9308  164.6243 C.ar    1  UNL1       -0.0000
     13 C         143.3362  138.9170  165.6947 C.ar    1  UNL1       -0.0003
     14 C         142.7226  139.0751  167.0542 C.ar    1  UNL1       -0.0042
     15 O         138.8835  139.4242  168.1229 O.3     1  UNL1       -0.3470
     16 C         138.1395  138.8025  166.9784 C.3     1  UNL1        0.1875
     17 C         139.8170  138.7459  163.3822 C.ar    1  UNL1        0.0750
     18 C         139.1649  139.9377  162.7464 C.ar    1  UNL1        0.0346
     19 C         138.1710  140.7511  163.5213 C.ar    1  UNL1        0.1380
     20 CL        137.5188  141.9430  162.8854 Cl      1  UNL1       -0.0614
     21 N         137.8292  140.3728  164.9319 N.ar    1  UNL1       -0.2358
     22 C         138.4813  139.1809  165.5677 C.ar    1  UNL1        0.0897
     23 C         139.4752  138.3675  164.7928 C.ar    1  UNL1        0.0212
     24 F         141.8048  137.1189  161.8325 F       1  UNL1       -0.1659
     25 C         140.8109  137.9324  162.6073 C.3     1  UNL1        0.4187
     26 F         140.4924  138.7205  161.3714 F       1  UNL1       -0.1659
     27 F         141.1294  137.1443  163.8432 F       1  UNL1       -0.1659
@<TRIPOS>BOND
     1    24    25    1
     2    25    26    1
     3    25    27    1
     4    25    17    1
     5    17    18   ar
     6    18    19   ar
     7    19    20    1
     8    19    21   ar
     9    21    22   ar
    10    22    16    1
    11    16    15    1
    12    15     1    1
    13     1     2    1
    14     2     9    1
    15     9    10   ar
    16    10    11   ar
    17    11    12   ar
    18    12    13   ar
    19    13    14   ar
    20     2     3    1
    21     3     4    1
    22     4     5    1
    23     5     6    1
    24     6     7    1
    25    22    23   ar
    26    23    17   ar
    27     7     2    1
    28    14     9   ar
    29     5     8    1
@<TRIPOS>MOLECULE
*****
 27 29 0 0 0
SMALL
GASTEIGER

@<TRIPOS>ATOM
      1 C         141.1104  142.5916  165.2225 C.3     1  UNL1        0.1467
      2 C         142.3528  142.9304  164.4534 C.3     1  UNL1        0.0489
      3 C         141.5602  144.1848  164.2336 C.3     1  UNL1        0.0236
      4 C         142.1355  145.3015  163.4139 C.3     1  UNL1        0.0690
      5 N         143.5034  145.1638  162.8139 N.3     1  UNL1       -0.2974
      6 C         144.2960  143.9095  163.0337 C.3     1  UNL1        0.0690
      7 C         143.7208  142.7928  163.8535 C.3     1  UNL1        0.0236
      8 H         144.0638  145.9340  163.1788 H       1  UNL1        0.1232
      9 C         142.7140  141.5584  164.9403 C.ar    1  UNL1       -0.0204
     10 C         143.4157  140.5986  164.0258 C.ar    1  UNL1       -0.0042
     11 C         143.7769  139.2265  164.5127 C.ar    1  UNL1       -0.0003
     12 C         143.4362  138.8142  165.9141 C.ar    1  UNL1       -0.0000
     13 C         142.7344  139.7741  166.8287 C.ar    1  UNL1       -0.0003
     14 C         142.3733  141.1461  166.3417 C.ar    1  UNL1       -0.0042
     15 O         139.7643  142.9615  164.6736 O.3     1  UNL1       -0.3470
     16 C         138.5882  142.0583  164.8996 C.3     1  UNL1        0.1875
     17 C         139.9116  138.4311  163.9821 C.ar    1  UNL1        0.0750
     18 C         139.1603  137.5955  164.9757 C.ar    1  UNL1        0.0346
     19 C         138.2183  138.2475  165.9439 C.ar    1  UNL1        0.1380
     20 CL        137.4669  137.4118  166.9375 Cl      1  UNL1       -0.0614
     21 N         138.0276  139.7351  165.9186 N.ar    1  UNL1       -0.2358
     22 C         138.7789  140.5707  164.9250 C.ar    1  UNL1        0.0897
     23 C         139.7209  139.9187  163.9568 C.ar    1  UNL1        0.0212
     24 F         141.7957  137.1271  162.0456 F       1  UNL1       -0.1659
     25 C         140.8537  137.7791  163.0138 C.3     1  UNL1        0.4187
     26 F         140.3437  138.6684  161.9188 F       1  UNL1       -0.1659
     27 F         141.3636  136.8898  164.1088 F       1  UNL1       -0.1659
@<TRIPOS>BOND
     1    24    25    1
     2    25    26    1
     3    25    27    1
     4    25    17    1
     5    17    18   ar
     6    18    19   ar
     7    19    20    1
     8    19    21   ar
     9    21    22   ar
    10    22    16    1
    11    16    15    1
    12    15     1    1
    13     1     2    1
    14     2     9    1
    15     9    10   ar
    16    10    11   ar
    17    11    12   ar
    18    12    13   ar
    19    13    14   ar
    20     2     3    1
    21     3     4    1
    22     4     5    1
    23     5     6    1
    24     6     7    1
    25    22    23   ar
    26    23    17   ar
    27     7     2    1
    28    14     9   ar
    29     5     8    1
@<TRIPOS>MOLECULE
*****
 27 29 0 0 0
SMALL
GASTEIGER

@<TRIPOS>ATOM
      1 C         139.0856  140.5223  165.4068 C.3     1  UNL1        0.1467
      2 C         139.2605  142.0114  165.3658 C.3     1  UNL1        0.0489
      3 C         138.1271  141.8555  164.3958 C.3     1  UNL1        0.0236
      4 C         137.5412  143.0633  163.7265 C.3     1  UNL1        0.0690
      5 N         138.0887  144.4270  164.0273 N.3     1  UNL1       -0.2974
      6 C         139.2221  144.5830  164.9974 C.3     1  UNL1        0.0690
      7 C         139.8080  143.3752  165.6666 C.3     1  UNL1        0.0236
      8 H         137.3133  144.9825  164.3887 H       1  UNL1        0.1232
      9 C         140.3332  141.6502  166.3501 C.ar    1  UNL1       -0.0204
     10 C         141.6347  142.3959  166.3484 C.ar    1  UNL1       -0.0042
     11 C         142.7074  142.0347  167.3328 C.ar    1  UNL1       -0.0003
     12 C         142.4786  140.9277  168.3188 C.ar    1  UNL1       -0.0000
     13 C         141.1770  140.1820  168.3205 C.ar    1  UNL1       -0.0003
     14 C         140.1044  140.5433  167.3362 C.ar    1  UNL1       -0.0042
     15 O         138.9655  139.7457  164.1290 O.3     1  UNL1       -0.3470
     16 C         140.0714  138.8261  163.7036 C.3     1  UNL1        0.1875
     17 C         143.6883  140.4363  163.9776 C.ar    1  UNL1        0.0750
     18 C         144.2898  139.5984  165.0667 C.ar    1  UNL1        0.0346
     19 C         143.4852  138.5031  165.7015 C.ar    1  UNL1        0.1380
     20 CL        144.0868  137.6653  166.7906 Cl      1  UNL1       -0.0614
     21 N         142.0791  138.2457  165.2471 N.ar    1  UNL1       -0.2358
     22 C         141.4776  139.0835  164.1580 C.ar    1  UNL1        0.0897
     23 C         142.2822  140.1788  163.5233 C.ar    1  UNL1        0.0212
     24 F         145.2976  142.6269  162.7082 F       1  UNL1       -0.1659
     25 C         144.4930  141.5316  163.3429 C.3     1  UNL1        0.4187
     26 F         145.7467  140.7380  163.5627 F       1  UNL1       -0.1659
     27 F         143.2392  142.3252  163.1231 F       1  UNL1       -0.1659
@<TRIPOS>BOND
     1    24    25    1
     2    25    26    1
     3    25    27    1
     4    25    17    1
     5    17    18   ar
     6    18    19   ar
     7    19    20    1
     8    19    21   ar
     9    21    22   ar
    10    22    16    1
    11    16    15    1
    12    15     1    1
    13     1     2    1
    14     2     9    1
    15     9    10   ar
    16    10    11   ar
    17    11    12   ar
    18    12    13   ar
    19    13    14   ar
    20     2     3    1
    21     3     4    1
    22     4     5    1
    23     5     6    1
    24     6     7    1
    25    22    23   ar
    26    23    17   ar
    27     7     2    1
    28    14     9   ar
    29     5     8    1
