@<TRIPOS>MOLECULE
*****
 41 46 0 0 0
SMALL
GASTEIGER

@<TRIPOS>ATOM
      1 C         142.7078  139.3408  158.7760 C.ar    1  UNL1        0.0358
      2 C         143.6481  140.3977  158.2771 C.ar    1  UNL1        0.0029
      3 C         144.0352  141.5392  159.1700 C.ar    1  UNL1        0.0016
      4 C         143.4821  141.6238  160.5617 C.ar    1  UNL1        0.0174
      5 C         142.5419  140.5668  161.0606 C.ar    1  UNL1        0.0653
      6 C         142.1548  139.4254  160.1678 C.ar    1  UNL1        0.0261
      7 N         141.9888  140.6514  162.4524 N.ar    1  UNL1       -0.2733
      8 C         140.7743  141.4876  162.7273 C.ar    1  UNL1        0.0829
      9 C         140.2213  141.5722  164.1190 C.ar    1  UNL1        0.0193
     10 C         140.8828  140.8205  165.2358 C.ar    1  UNL1        0.0080
     11 C         140.3297  140.9051  166.6277 C.ar    1  UNL1       -0.0039
     12 C         140.9912  140.1534  167.7445 C.ar    1  UNL1       -0.0203
     13 C         142.2058  139.3171  167.4696 C.ar    1  UNL1        0.0255
     14 C         142.7588  139.2326  166.0778 C.ar    1  UNL1        0.1444
     15 F         143.9733  138.3963  165.8029 F       1  UNL1       -0.2040
     16 C         142.0973  139.9843  164.9610 C.ar    1  UNL1        0.0839
     17 C         142.6503  139.8997  163.5692 C.ar    1  UNL1        0.2668
     18 O         143.8649  139.0634  163.2943 O.2     1  UNL1       -0.2665
     19 C         140.4382  140.2379  169.1362 C.3     1  UNL1        0.0224
     20 C         140.6325  140.1329  170.6199 C.3     1  UNL1        0.0047
     21 C         139.2860  140.4893  170.0632 C.3     1  UNL1        0.0047
     22 C         142.9557  136.0328  156.5977 C.ar    1  UNL1        0.2244
     23 N         141.5463  135.9165  156.0974 N.ar    1  UNL1       -0.1810
     24 C         140.5241  136.9417  156.4901 C.ar    1  UNL1        0.2174
     25 N         139.1148  136.8254  155.9899 N.pl3   1  UNL1       -0.3273
     26 N         140.9113  138.0831  157.3829 N.ar    1  UNL1       -0.1948
     27 C         142.3207  138.1994  157.8831 C.ar    1  UNL1        0.1678
     28 N         143.3428  137.1742  157.4905 N.ar    1  UNL1       -0.1943
     29 H         138.8607  136.0762  155.4039 H       1  UNL1        0.1452
     30 H         138.4439  137.4983  156.2476 H       1  UNL1        0.1452
     31 N         143.9778  135.0076  156.2051 N.pl3   1  UNL1       -0.2800
     32 H         144.7865  135.2814  155.7148 H       1  UNL1        0.1552
     33 C         144.6507  130.1941  158.2687 C.3     1  UNL1        0.1538
     34 N         144.0772  131.3527  157.5079 N.ar    1  UNL1       -0.2460
     35 C         144.6676  132.7288  157.4202 C.ar    1  UNL1        0.1114
     36 C         143.7679  133.5652  156.5594 C.ar    1  UNL1        0.0906
     37 C         142.6215  132.7060  156.1151 C.ar    1  UNL1        0.1363
     38 N         142.8126  131.3386  156.7013 N.ar    1  UNL1       -0.1662
     39 C         141.2145  138.3685  160.6666 C.3     1  UNL1        0.1651
     40 O         141.7108  137.3018  161.5973 O.3     1  UNL1       -0.3772
     41 H         142.3534  136.7420  161.1341 H       1  UNL1        0.2109
@<TRIPOS>BOND
     1    33    34    1
     2    34    35   ar
     3    35    36   ar
     4    36    31    1
     5    31    22    1
     6    22    23   ar
     7    23    24   ar
     8    24    25    1
     9    24    26   ar
    10    26    27   ar
    11    27     1    1
    12     1     2   ar
    13     2     3   ar
    14     3     4   ar
    15     4     5   ar
    16     5     7    1
    17     7     8   ar
    18     8     9   ar
    19     9    10   ar
    20    10    11   ar
    21    11    12   ar
    22    12    19    1
    23    19    20    1
    24    20    21    1
    25    12    13   ar
    26    13    14   ar
    27    14    15    1
    28    14    16   ar
    29    16    17   ar
    30    17    18    2
    31     5     6   ar
    32     6    39    1
    33    39    40    1
    34    27    28   ar
    35    36    37   ar
    36    37    38   ar
    37    38    34   ar
    38    28    22   ar
    39     6     1   ar
    40    17     7   ar
    41    16    10   ar
    42    21    19    1
    43    31    32    1
    44    25    29    1
    45    25    30    1
    46    40    41    1
@<TRIPOS>MOLECULE
*****
 41 46 0 0 0
SMALL
GASTEIGER

@<TRIPOS>ATOM
      1 C         141.8454  138.6558  158.5886 C.ar    1  UNL1        0.0358
      2 C         140.4014  138.5804  158.1896 C.ar    1  UNL1        0.0029
      3 C         139.3281  138.7225  159.2278 C.ar    1  UNL1        0.0016
      4 C         139.6987  138.9400  160.6648 C.ar    1  UNL1        0.0174
      5 C         141.1427  139.0154  161.0639 C.ar    1  UNL1        0.0653
      6 C         142.2160  138.8733  160.0258 C.ar    1  UNL1        0.0261
      7 N         141.5133  139.2329  162.5010 N.ar    1  UNL1       -0.2733
      8 C         141.7886  138.0571  163.3908 C.ar    1  UNL1        0.0829
      9 C         142.1592  138.2747  164.8279 C.ar    1  UNL1        0.0193
     10 C         142.2544  139.6680  165.3752 C.ar    1  UNL1        0.0080
     11 C         142.6251  139.8855  166.8124 C.ar    1  UNL1       -0.0039
     12 C         142.7203  141.2788  167.3598 C.ar    1  UNL1       -0.0203
     13 C         142.4449  142.4547  166.4699 C.ar    1  UNL1        0.0255
     14 C         142.0743  142.2371  165.0328 C.ar    1  UNL1        0.1444
     15 F         141.7990  143.4129  164.1431 F       1  UNL1       -0.2040
     16 C         141.9791  140.8438  164.4855 C.ar    1  UNL1        0.0839
     17 C         141.6085  140.6262  163.0484 C.ar    1  UNL1        0.2668
     18 O         141.3331  141.8020  162.1586 O.2     1  UNL1       -0.2665
     19 C         143.0909  141.4964  168.7969 C.3     1  UNL1        0.0224
     20 C         143.8267  142.2777  169.8447 C.3     1  UNL1        0.0047
     21 C         142.9969  141.0918  170.2382 C.3     1  UNL1        0.0047
     22 C         144.2304  137.0436  155.8569 C.ar    1  UNL1        0.2244
     23 N         145.0656  138.2294  155.4743 N.ar    1  UNL1       -0.1810
     24 C         144.8273  139.5574  156.1299 C.ar    1  UNL1        0.2174
     25 N         145.6624  140.7432  155.7473 N.pl3   1  UNL1       -0.3273
     26 N         143.7539  139.6995  157.1680 N.ar    1  UNL1       -0.1948
     27 C         142.9188  138.5136  157.5505 C.ar    1  UNL1        0.1678
     28 N         143.1570  137.1857  156.8950 N.ar    1  UNL1       -0.1943
     29 H         146.3669  140.6500  155.0660 H       1  UNL1        0.1452
     30 H         145.5060  141.6148  156.1776 H       1  UNL1        0.1452
     31 N         144.4687  135.7156  155.2013 N.pl3   1  UNL1       -0.2800
     32 H         145.1792  135.6202  154.5265 H       1  UNL1        0.1552
     33 C         140.9024  131.8271  154.9958 C.3     1  UNL1        0.1538
     34 N         141.9852  132.7457  155.4794 N.ar    1  UNL1       -0.2460
     35 C         142.5780  133.8904  154.7124 C.ar    1  UNL1        0.1114
     36 C         143.6244  134.5331  155.5738 C.ar    1  UNL1        0.0906
     37 C         143.6784  133.7855  156.8731 C.ar    1  UNL1        0.1363
     38 N         142.6653  132.6809  156.8148 N.ar    1  UNL1       -0.1662
     39 C         143.6600  138.9487  160.4248 C.3     1  UNL1        0.1651
     40 O         144.3074  137.7881  161.1207 O.3     1  UNL1       -0.3772
     41 H         143.9035  137.6689  161.9945 H       1  UNL1        0.2109
@<TRIPOS>BOND
     1    33    34    1
     2    34    35   ar
     3    35    36   ar
     4    36    31    1
     5    31    22    1
     6    22    23   ar
     7    23    24   ar
     8    24    25    1
     9    24    26   ar
    10    26    27   ar
    11    27     1    1
    12     1     2   ar
    13     2     3   ar
    14     3     4   ar
    15     4     5   ar
    16     5     7    1
    17     7     8   ar
    18     8     9   ar
    19     9    10   ar
    20    10    11   ar
    21    11    12   ar
    22    12    19    1
    23    19    20    1
    24    20    21    1
    25    12    13   ar
    26    13    14   ar
    27    14    15    1
    28    14    16   ar
    29    16    17   ar
    30    17    18    2
    31     5     6   ar
    32     6    39    1
    33    39    40    1
    34    27    28   ar
    35    36    37   ar
    36    37    38   ar
    37    38    34   ar
    38    28    22   ar
    39     6     1   ar
    40    17     7   ar
    41    16    10   ar
    42    21    19    1
    43    31    32    1
    44    25    29    1
    45    25    30    1
    46    40    41    1
@<TRIPOS>MOLECULE
*****
 41 46 0 0 0
SMALL
GASTEIGER

@<TRIPOS>ATOM
      1 C         141.9288  139.1864  158.3887 C.ar    1  UNL1        0.0358
      2 C         140.5225  138.7936  158.0450 C.ar    1  UNL1        0.0029
      3 C         139.4216  138.9974  159.0433 C.ar    1  UNL1        0.0016
      4 C         139.7270  139.5938  160.3853 C.ar    1  UNL1        0.0174
      5 C         141.1332  139.9866  160.7290 C.ar    1  UNL1        0.0653
      6 C         142.2341  139.7829  159.7308 C.ar    1  UNL1        0.0261
      7 N         141.4386  140.5831  162.0711 N.ar    1  UNL1       -0.2733
      8 C         141.3967  142.0708  162.2577 C.ar    1  UNL1        0.0829
      9 C         141.7020  142.6672  163.5997 C.ar    1  UNL1        0.0193
     10 C         142.0493  141.7759  164.7551 C.ar    1  UNL1        0.0080
     11 C         142.3547  142.3723  166.0971 C.ar    1  UNL1       -0.0039
     12 C         142.7019  141.4810  167.2525 C.ar    1  UNL1       -0.0203
     13 C         142.7438  139.9932  167.0659 C.ar    1  UNL1        0.0255
     14 C         142.4385  139.3968  165.7239 C.ar    1  UNL1        0.1444
     15 F         142.4804  137.9091  165.5373 F       1  UNL1       -0.2040
     16 C         142.0912  140.2881  164.5685 C.ar    1  UNL1        0.0839
     17 C         141.7859  139.6917  163.2265 C.ar    1  UNL1        0.2668
     18 O         141.8278  138.2039  163.0398 O.2     1  UNL1       -0.2665
     19 C         143.0073  142.0774  168.5945 C.3     1  UNL1        0.0224
     20 C         142.5518  142.7897  169.8336 C.3     1  UNL1        0.0047
     21 C         143.9916  142.3982  169.6799 C.3     1  UNL1        0.0047
     22 C         144.3748  137.4173  155.8126 C.ar    1  UNL1        0.2244
     23 N         145.2315  138.5753  155.3940 N.ar    1  UNL1       -0.1810
     24 C         144.9872  139.9370  155.9736 C.ar    1  UNL1        0.2174
     25 N         145.8437  141.0950  155.5551 N.pl3   1  UNL1       -0.3273
     26 N         143.8862  140.1407  156.9719 N.ar    1  UNL1       -0.1948
     27 C         143.0296  138.9827  157.3905 C.ar    1  UNL1        0.1678
     28 N         143.2740  137.6210  156.8108 N.ar    1  UNL1       -0.1943
     29 H         146.5663  140.9614  154.8999 H       1  UNL1        0.1452
     30 H         145.6834  141.9888  155.9355 H       1  UNL1        0.1452
     31 N         144.6192  136.0555  155.2329 N.pl3   1  UNL1       -0.2800
     32 H         145.3607  135.9155  154.6006 H       1  UNL1        0.1552
     33 C         141.0406  132.1796  155.0061 C.3     1  UNL1        0.1538
     34 N         142.0888  133.1256  155.5123 N.ar    1  UNL1       -0.2460
     35 C         142.7565  134.2088  154.7181 C.ar    1  UNL1        0.1114
     36 C         143.7337  134.9072  155.6166 C.ar    1  UNL1        0.0906
     37 C         143.6701  134.2556  156.9661 C.ar    1  UNL1        0.1363
     38 N         142.6535  133.1545  156.9017 N.ar    1  UNL1       -0.1662
     39 C         143.6404  140.1756  160.0745 C.3     1  UNL1        0.1651
     40 O         144.1458  141.5423  159.7182 O.3     1  UNL1       -0.3772
     41 H         144.1836  141.6316  158.7531 H       1  UNL1        0.2109
@<TRIPOS>BOND
     1    33    34    1
     2    34    35   ar
     3    35    36   ar
     4    36    31    1
     5    31    22    1
     6    22    23   ar
     7    23    24   ar
     8    24    25    1
     9    24    26   ar
    10    26    27   ar
    11    27     1    1
    12     1     2   ar
    13     2     3   ar
    14     3     4   ar
    15     4     5   ar
    16     5     7    1
    17     7     8   ar
    18     8     9   ar
    19     9    10   ar
    20    10    11   ar
    21    11    12   ar
    22    12    19    1
    23    19    20    1
    24    20    21    1
    25    12    13   ar
    26    13    14   ar
    27    14    15    1
    28    14    16   ar
    29    16    17   ar
    30    17    18    2
    31     5     6   ar
    32     6    39    1
    33    39    40    1
    34    27    28   ar
    35    36    37   ar
    36    37    38   ar
    37    38    34   ar
    38    28    22   ar
    39     6     1   ar
    40    17     7   ar
    41    16    10   ar
    42    21    19    1
    43    31    32    1
    44    25    29    1
    45    25    30    1
    46    40    41    1
@<TRIPOS>MOLECULE
*****
 41 46 0 0 0
SMALL
GASTEIGER

@<TRIPOS>ATOM
      1 C         140.1243  139.3088  159.2111 C.ar    1  UNL1        0.0358
      2 C         138.8508  139.7792  158.5734 C.ar    1  UNL1        0.0029
      3 C         137.7220  140.2741  159.4284 C.ar    1  UNL1        0.0016
      4 C         137.8669  140.2985  160.9212 C.ar    1  UNL1        0.0174
      5 C         139.1404  139.8281  161.5590 C.ar    1  UNL1        0.0653
      6 C         140.2691  139.3332  160.7040 C.ar    1  UNL1        0.0261
      7 N         139.2852  139.8525  163.0518 N.ar    1  UNL1       -0.2733
      8 C         138.9045  138.6489  163.8620 C.ar    1  UNL1        0.0829
      9 C         139.0493  138.6734  165.3548 C.ar    1  UNL1        0.0193
     10 C         139.5748  139.9015  166.0373 C.ar    1  UNL1        0.0080
     11 C         139.7196  139.9259  167.5302 C.ar    1  UNL1       -0.0039
     12 C         140.2450  141.1539  168.2127 C.ar    1  UNL1       -0.0203
     13 C         140.6257  142.3575  167.4024 C.ar    1  UNL1        0.0255
     14 C         140.4809  142.3330  165.9096 C.ar    1  UNL1        0.1444
     15 F         140.8615  143.5366  165.0994 F       1  UNL1       -0.2040
     16 C         139.9554  141.1050  165.2271 C.ar    1  UNL1        0.0839
     17 C         139.8106  141.0805  163.7343 C.ar    1  UNL1        0.2668
     18 O         140.1913  142.2841  162.9240 O.2     1  UNL1       -0.2665
     19 C         140.3898  141.1784  169.7055 C.3     1  UNL1        0.0224
     20 C         140.6643  141.9341  170.9718 C.3     1  UNL1        0.0047
     21 C         140.3661  140.4650  171.0248 C.3     1  UNL1        0.0047
     22 C         142.2651  137.0014  156.7939 C.ar    1  UNL1        0.2244
     23 N         143.5106  137.8242  156.6461 N.ar    1  UNL1       -0.1810
     24 C         143.6273  139.1419  157.3534 C.ar    1  UNL1        0.2174
     25 N         144.8727  139.9647  157.2056 N.pl3   1  UNL1       -0.3273
     26 N         142.4985  139.6367  158.2084 N.ar    1  UNL1       -0.1948
     27 C         141.2531  138.8139  158.3561 C.ar    1  UNL1        0.1678
     28 N         141.1363  137.4963  157.6489 N.ar    1  UNL1       -0.1943
     29 H         145.6136  139.6399  156.6444 H       1  UNL1        0.1452
     30 H         144.9493  140.8295  157.6698 H       1  UNL1        0.1452
     31 N         142.1484  135.6838  156.0867 N.pl3   1  UNL1       -0.2800
     32 H         141.5043  135.5759  155.3500 H       1  UNL1        0.1552
     33 C         144.9311  131.1977  155.9738 C.3     1  UNL1        0.1538
     34 N         144.2921  132.4685  156.4500 N.ar    1  UNL1       -0.2460
     35 C         143.4379  133.3878  155.6281 C.ar    1  UNL1        0.1114
     36 C         143.0130  134.5305  156.5019 C.ar    1  UNL1        0.0906
     37 C         143.6044  134.3176  157.8638 C.ar    1  UNL1        0.1363
     38 N         144.3949  133.0432  157.8317 N.ar    1  UNL1       -0.1662
     39 C         141.5427  138.8628  161.3417 C.3     1  UNL1        0.1651
     40 O         141.7428  137.4044  161.6302 O.3     1  UNL1       -0.3772
     41 H         141.1078  137.1182  162.3053 H       1  UNL1        0.2109
@<TRIPOS>BOND
     1    33    34    1
     2    34    35   ar
     3    35    36   ar
     4    36    31    1
     5    31    22    1
     6    22    23   ar
     7    23    24   ar
     8    24    25    1
     9    24    26   ar
    10    26    27   ar
    11    27     1    1
    12     1     2   ar
    13     2     3   ar
    14     3     4   ar
    15     4     5   ar
    16     5     7    1
    17     7     8   ar
    18     8     9   ar
    19     9    10   ar
    20    10    11   ar
    21    11    12   ar
    22    12    19    1
    23    19    20    1
    24    20    21    1
    25    12    13   ar
    26    13    14   ar
    27    14    15    1
    28    14    16   ar
    29    16    17   ar
    30    17    18    2
    31     5     6   ar
    32     6    39    1
    33    39    40    1
    34    27    28   ar
    35    36    37   ar
    36    37    38   ar
    37    38    34   ar
    38    28    22   ar
    39     6     1   ar
    40    17     7   ar
    41    16    10   ar
    42    21    19    1
    43    31    32    1
    44    25    29    1
    45    25    30    1
    46    40    41    1
@<TRIPOS>MOLECULE
*****
 41 46 0 0 0
SMALL
GASTEIGER

@<TRIPOS>ATOM
      1 C         140.1319  139.3576  158.0847 C.ar    1  UNL1        0.0358
      2 C         138.9789  139.9850  157.3586 C.ar    1  UNL1        0.0029
      3 C         137.9728  140.8025  158.1132 C.ar    1  UNL1        0.0016
      4 C         138.1195  140.9926  159.5938 C.ar    1  UNL1        0.0174
      5 C         139.2725  140.3652  160.3199 C.ar    1  UNL1        0.0653
      6 C         140.2786  139.5478  159.5654 C.ar    1  UNL1        0.0261
      7 N         139.4192  140.5554  161.8006 N.ar    1  UNL1       -0.2733
      8 C         139.9621  141.8450  162.3410 C.ar    1  UNL1        0.0829
      9 C         140.1089  142.0351  163.8216 C.ar    1  UNL1        0.0193
     10 C         139.7127  140.9356  164.7618 C.ar    1  UNL1        0.0080
     11 C         139.8594  141.1257  166.2425 C.ar    1  UNL1       -0.0039
     12 C         139.4632  140.0262  167.1828 C.ar    1  UNL1       -0.0203
     13 C         138.9203  138.7365  166.6423 C.ar    1  UNL1        0.0255
     14 C         138.7735  138.5464  165.1617 C.ar    1  UNL1        0.1444
     15 F         138.2306  137.2568  164.6213 F       1  UNL1       -0.2040
     16 C         139.1697  139.6459  164.2215 C.ar    1  UNL1        0.0839
     17 C         139.0230  139.4559  162.7408 C.ar    1  UNL1        0.2668
     18 O         138.4801  138.1662  162.2004 O.2     1  UNL1       -0.2665
     19 C         139.6099  140.2163  168.6634 C.3     1  UNL1        0.0224
     20 C         140.4449  140.1363  169.9069 C.3     1  UNL1        0.0047
     21 C         139.0291  140.6255  169.9844 C.3     1  UNL1        0.0047
     22 C         141.8275  136.3062  156.1970 C.ar    1  UNL1        0.2244
     23 N         143.1504  136.9052  155.8210 N.ar    1  UNL1       -0.1810
     24 C         143.4670  138.3217  156.1995 C.ar    1  UNL1        0.2174
     25 N         144.7898  138.9207  155.8236 N.pl3   1  UNL1       -0.3273
     26 N         142.4608  139.1392  156.9541 N.ar    1  UNL1       -0.1948
     27 C         141.1380  138.5402  157.3301 C.ar    1  UNL1        0.1678
     28 N         140.8214  137.1237  156.9516 N.ar    1  UNL1       -0.1943
     29 H         145.4501  138.3842  155.3283 H       1  UNL1        0.1452
     30 H         144.9976  139.8504  156.0720 H       1  UNL1        0.1452
     31 N         141.5109  134.8897  155.8185 N.pl3   1  UNL1       -0.2800
     32 H         140.7063  134.6902  155.2874 H       1  UNL1        0.1552
     33 C         145.4680  132.2325  158.0903 C.3     1  UNL1        0.1538
     34 N         144.2391  132.5558  157.2933 N.ar    1  UNL1       -0.2460
     35 C         143.6337  133.9172  157.1196 C.ar    1  UNL1        0.1114
     36 C         142.4201  133.7772  156.2491 C.ar    1  UNL1        0.0906
     37 C         142.2755  132.3293  155.8847 C.ar    1  UNL1        0.1363
     38 N         143.3997  131.5744  156.5301 N.ar    1  UNL1       -0.1662
     39 C         141.4315  138.9204  160.2914 C.3     1  UNL1        0.1651
     40 O         141.2317  137.6461  161.0571 O.3     1  UNL1       -0.3772
     41 H         140.6373  137.8088  161.8062 H       1  UNL1        0.2109
@<TRIPOS>BOND
     1    33    34    1
     2    34    35   ar
     3    35    36   ar
     4    36    31    1
     5    31    22    1
     6    22    23   ar
     7    23    24   ar
     8    24    25    1
     9    24    26   ar
    10    26    27   ar
    11    27     1    1
    12     1     2   ar
    13     2     3   ar
    14     3     4   ar
    15     4     5   ar
    16     5     7    1
    17     7     8   ar
    18     8     9   ar
    19     9    10   ar
    20    10    11   ar
    21    11    12   ar
    22    12    19    1
    23    19    20    1
    24    20    21    1
    25    12    13   ar
    26    13    14   ar
    27    14    15    1
    28    14    16   ar
    29    16    17   ar
    30    17    18    2
    31     5     6   ar
    32     6    39    1
    33    39    40    1
    34    27    28   ar
    35    36    37   ar
    36    37    38   ar
    37    38    34   ar
    38    28    22   ar
    39     6     1   ar
    40    17     7   ar
    41    16    10   ar
    42    21    19    1
    43    31    32    1
    44    25    29    1
    45    25    30    1
    46    40    41    1
@<TRIPOS>MOLECULE
*****
 41 46 0 0 0
SMALL
GASTEIGER

@<TRIPOS>ATOM
      1 C         139.5060  140.4969  158.0958 C.ar    1  UNL1        0.0358
      2 C         140.6304  139.6877  157.5207 C.ar    1  UNL1        0.0029
      3 C         141.7197  139.1751  158.4157 C.ar    1  UNL1        0.0016
      4 C         141.6845  139.4718  159.8856 C.ar    1  UNL1        0.0174
      5 C         140.5600  140.2810  160.4607 C.ar    1  UNL1        0.0653
      6 C         139.4708  140.7936  159.5658 C.ar    1  UNL1        0.0261
      7 N         140.5248  140.5777  161.9307 N.ar    1  UNL1       -0.2733
      8 C         141.1560  141.8321  162.4579 C.ar    1  UNL1        0.0829
      9 C         141.1208  142.1287  163.9279 C.ar    1  UNL1        0.0193
     10 C         140.4544  141.1709  164.8705 C.ar    1  UNL1        0.0080
     11 C         140.4192  141.4676  166.3405 C.ar    1  UNL1       -0.0039
     12 C         139.7528  140.5099  167.2832 C.ar    1  UNL1       -0.0203
     13 C         139.1216  139.2554  166.7558 C.ar    1  UNL1        0.0255
     14 C         139.1568  138.9588  165.2859 C.ar    1  UNL1        0.1444
     15 F         138.5256  137.7044  164.7586 F       1  UNL1       -0.2040
     16 C         139.8232  139.9166  164.3432 C.ar    1  UNL1        0.0839
     17 C         139.8584  139.6199  162.8733 C.ar    1  UNL1        0.2668
     18 O         139.2272  138.3655  162.3460 O.2     1  UNL1       -0.2665
     19 C         139.7176  140.8065  168.7531 C.3     1  UNL1        0.0224
     20 C         139.5750  140.3360  170.1702 C.3     1  UNL1        0.0047
     21 C         139.7993  141.7908  169.8820 C.3     1  UNL1        0.0047
     22 C         136.2482  140.5947  155.8315 C.ar    1  UNL1        0.2244
     23 N         136.2382  142.0346  155.4112 N.ar    1  UNL1       -0.1810
     24 C         137.3175  142.9619  155.8858 C.ar    1  UNL1        0.2174
     25 N         137.3076  144.4018  155.4656 N.pl3   1  UNL1       -0.3273
     26 N         138.4068  142.4493  156.7807 N.ar    1  UNL1       -0.1948
     27 C         138.4167  141.0095  157.2010 C.ar    1  UNL1        0.1678
     28 N         137.3374  140.0822  156.7264 N.ar    1  UNL1       -0.1943
     29 H         136.5927  144.7382  154.8782 H       1  UNL1        0.1452
     30 H         138.0160  145.0104  155.7771 H       1  UNL1        0.1452
     31 N         135.1689  139.6674  155.3570 N.pl3   1  UNL1       -0.2800
     32 H         135.3695  138.9871  154.6742 H       1  UNL1        0.1552
     33 C         130.7336  138.6075  158.0187 C.3     1  UNL1        0.1538
     34 N         131.7453  139.2894  157.1461 N.ar    1  UNL1       -0.2460
     35 C         133.1196  138.7806  156.8263 C.ar    1  UNL1        0.1114
     36 C         133.7840  139.7766  155.9226 C.ar    1  UNL1        0.0906
     37 C         132.8203  140.9010  155.6840 C.ar    1  UNL1        0.1363
     38 N         131.5603  140.6000  156.4402 N.ar    1  UNL1       -0.1662
     39 C         138.3463  141.6028  160.1409 C.3     1  UNL1        0.1651
     40 O         138.3028  143.0865  159.9241 O.3     1  UNL1       -0.3772
     41 H         139.0514  143.5020  160.3799 H       1  UNL1        0.2109
@<TRIPOS>BOND
     1    33    34    1
     2    34    35   ar
     3    35    36   ar
     4    36    31    1
     5    31    22    1
     6    22    23   ar
     7    23    24   ar
     8    24    25    1
     9    24    26   ar
    10    26    27   ar
    11    27     1    1
    12     1     2   ar
    13     2     3   ar
    14     3     4   ar
    15     4     5   ar
    16     5     7    1
    17     7     8   ar
    18     8     9   ar
    19     9    10   ar
    20    10    11   ar
    21    11    12   ar
    22    12    19    1
    23    19    20    1
    24    20    21    1
    25    12    13   ar
    26    13    14   ar
    27    14    15    1
    28    14    16   ar
    29    16    17   ar
    30    17    18    2
    31     5     6   ar
    32     6    39    1
    33    39    40    1
    34    27    28   ar
    35    36    37   ar
    36    37    38   ar
    37    38    34   ar
    38    28    22   ar
    39     6     1   ar
    40    17     7   ar
    41    16    10   ar
    42    21    19    1
    43    31    32    1
    44    25    29    1
    45    25    30    1
    46    40    41    1
@<TRIPOS>MOLECULE
*****
 41 46 0 0 0
SMALL
GASTEIGER

@<TRIPOS>ATOM
      1 C         139.7696  139.9102  158.5510 C.ar    1  UNL1        0.0358
      2 C         140.9040  139.0751  158.0356 C.ar    1  UNL1        0.0029
      3 C         141.7928  138.3423  158.9964 C.ar    1  UNL1        0.0016
      4 C         141.5471  138.4445  160.4726 C.ar    1  UNL1        0.0174
      5 C         140.4126  139.2796  160.9880 C.ar    1  UNL1        0.0653
      6 C         139.5239  140.0124  160.0273 C.ar    1  UNL1        0.0261
      7 N         140.1669  139.3818  162.4643 N.ar    1  UNL1       -0.2733
      8 C         139.3054  138.3654  163.1534 C.ar    1  UNL1        0.0829
      9 C         139.0598  138.4677  164.6295 C.ar    1  UNL1        0.0193
     10 C         139.6756  139.5862  165.4167 C.ar    1  UNL1        0.0080
     11 C         139.4300  139.6884  166.8929 C.ar    1  UNL1       -0.0039
     12 C         140.0458  140.8070  167.6800 C.ar    1  UNL1       -0.0203
     13 C         140.9074  141.8233  166.9909 C.ar    1  UNL1        0.0255
     14 C         141.1530  141.7211  165.5147 C.ar    1  UNL1        0.1444
     15 F         142.0146  142.7374  164.8257 F       1  UNL1       -0.2040
     16 C         140.5372  140.6025  164.7276 C.ar    1  UNL1        0.0839
     17 C         140.7828  140.5003  163.2514 C.ar    1  UNL1        0.2668
     18 O         141.6444  141.5166  162.5623 O.2     1  UNL1       -0.2665
     19 C         139.8002  140.9092  169.1562 C.3     1  UNL1        0.0224
     20 C         139.7179  140.2628  170.5073 C.3     1  UNL1        0.0047
     21 C         139.4570  141.7327  170.3620 C.3     1  UNL1        0.0047
     22 C         136.8482  140.6621  155.9724 C.ar    1  UNL1        0.2244
     23 N         137.1033  142.1088  155.6688 N.ar    1  UNL1       -0.1810
     24 C         138.2473  142.8226  156.3261 C.ar    1  UNL1        0.2174
     25 N         138.5024  144.2692  156.0226 N.pl3   1  UNL1       -0.3273
     26 N         139.1360  142.0897  157.2869 N.ar    1  UNL1       -0.1948
     27 C         138.8808  140.6430  157.5903 C.ar    1  UNL1        0.1678
     28 N         137.7369  139.9293  156.9331 N.ar    1  UNL1       -0.1943
     29 H         137.9191  144.7502  155.3920 H       1  UNL1        0.1452
     30 H         139.2532  144.7377  156.4540 H       1  UNL1        0.1452
     31 N         135.7043  139.9483  155.3151 N.pl3   1  UNL1       -0.2800
     32 H         135.8796  139.2670  154.6264 H       1  UNL1        0.1552
     33 C         130.8110  141.9320  155.2759 C.3     1  UNL1        0.1538
     34 N         132.0440  141.1844  155.6891 N.ar    1  UNL1       -0.2460
     35 C         133.3379  141.1311  154.9323 C.ar    1  UNL1        0.1114
     36 C         134.2932  140.2726  155.7072 C.ar    1  UNL1        0.0906
     37 C         133.5897  139.7953  156.9430 C.ar    1  UNL1        0.1363
     38 N         132.1996  140.3588  156.9318 N.ar    1  UNL1       -0.1662
     39 C         138.3894  140.8475  160.5428 C.3     1  UNL1        0.1651
     40 O         137.1259  140.1888  161.0115 O.3     1  UNL1       -0.3772
     41 H         136.6853  139.7627  160.2597 H       1  UNL1        0.2109
@<TRIPOS>BOND
     1    33    34    1
     2    34    35   ar
     3    35    36   ar
     4    36    31    1
     5    31    22    1
     6    22    23   ar
     7    23    24   ar
     8    24    25    1
     9    24    26   ar
    10    26    27   ar
    11    27     1    1
    12     1     2   ar
    13     2     3   ar
    14     3     4   ar
    15     4     5   ar
    16     5     7    1
    17     7     8   ar
    18     8     9   ar
    19     9    10   ar
    20    10    11   ar
    21    11    12   ar
    22    12    19    1
    23    19    20    1
    24    20    21    1
    25    12    13   ar
    26    13    14   ar
    27    14    15    1
    28    14    16   ar
    29    16    17   ar
    30    17    18    2
    31     5     6   ar
    32     6    39    1
    33    39    40    1
    34    27    28   ar
    35    36    37   ar
    36    37    38   ar
    37    38    34   ar
    38    28    22   ar
    39     6     1   ar
    40    17     7   ar
    41    16    10   ar
    42    21    19    1
    43    31    32    1
    44    25    29    1
    45    25    30    1
    46    40    41    1
@<TRIPOS>MOLECULE
*****
 41 46 0 0 0
SMALL
GASTEIGER

@<TRIPOS>ATOM
      1 C         140.2775  140.3988  166.9450 C.ar    1  UNL1        0.0358
      2 C         139.1952  139.7269  167.7370 C.ar    1  UNL1        0.0029
      3 C         138.1309  138.9378  167.0337 C.ar    1  UNL1        0.0016
      4 C         138.1489  138.8206  165.5384 C.ar    1  UNL1        0.0174
      5 C         139.2311  139.4925  164.7464 C.ar    1  UNL1        0.0653
      6 C         140.2954  140.2816  165.4497 C.ar    1  UNL1        0.0261
      7 N         139.2490  139.3753  163.2510 N.ar    1  UNL1       -0.2733
      8 C         139.7120  138.1038  162.6039 C.ar    1  UNL1        0.0829
      9 C         139.7299  137.9867  161.1086 C.ar    1  UNL1        0.0193
     10 C         139.2849  139.1410  160.2605 C.ar    1  UNL1        0.0080
     11 C         139.3028  139.0238  158.7651 C.ar    1  UNL1       -0.0039
     12 C         138.8577  140.1782  157.9170 C.ar    1  UNL1       -0.0203
     13 C         138.3947  141.4498  158.5642 C.ar    1  UNL1        0.0255
     14 C         138.3768  141.5669  160.0595 C.ar    1  UNL1        0.1444
     15 F         137.9138  142.8384  160.7066 F       1  UNL1       -0.2040
     16 C         138.8219  140.4125  160.9076 C.ar    1  UNL1        0.0839
     17 C         138.8040  140.5297  162.4029 C.ar    1  UNL1        0.2668
     18 O         138.3410  141.8013  163.0501 O.2     1  UNL1       -0.2665
     19 C         138.8756  140.0610  156.4217 C.3     1  UNL1        0.0224
     20 C         138.7000  139.2364  155.1811 C.3     1  UNL1        0.0047
     21 C         139.0823  140.6828  155.0724 C.3     1  UNL1        0.0047
     22 C         143.4883  142.6489  167.5595 C.ar    1  UNL1        0.2244
     23 N         143.4703  142.7662  169.0549 N.ar    1  UNL1       -0.1810
     24 C         142.3880  142.0943  169.8469 C.ar    1  UNL1        0.2174
     25 N         142.3700  142.2115  171.3422 N.pl3   1  UNL1       -0.3273
     26 N         141.3237  141.3052  169.1435 N.ar    1  UNL1       -0.1948
     27 C         141.3417  141.1879  167.6483 C.ar    1  UNL1        0.1678
     28 N         142.4240  141.8598  166.8563 N.ar    1  UNL1       -0.1943
     29 H         143.0685  142.7295  171.8038 H       1  UNL1        0.1452
     30 H         141.6597  141.7706  171.8620 H       1  UNL1        0.1452
     31 N         144.5705  143.3207  166.7675 N.pl3   1  UNL1       -0.2800
     32 H         145.3507  143.7060  167.2281 H       1  UNL1        0.1552
     33 C         144.8821  142.1218  161.6347 C.3     1  UNL1        0.1538
     34 N         144.6074  142.8545  162.9144 N.ar    1  UNL1       -0.2460
     35 C         144.8982  142.3525  164.2977 C.ar    1  UNL1        0.1114
     36 C         144.4642  143.4056  165.2737 C.ar    1  UNL1        0.0906
     37 C         143.9052  144.5584  164.4937 C.ar    1  UNL1        0.1363
     38 N         143.9936  144.2179  163.0356 N.ar    1  UNL1       -0.1662
     39 C         141.3776  140.9536  164.6576 C.3     1  UNL1        0.1651
     40 O         141.1855  142.3576  164.1658 O.3     1  UNL1       -0.3772
     41 H         140.4700  142.3758  163.5111 H       1  UNL1        0.2109
@<TRIPOS>BOND
     1    33    34    1
     2    34    35   ar
     3    35    36   ar
     4    36    31    1
     5    31    22    1
     6    22    23   ar
     7    23    24   ar
     8    24    25    1
     9    24    26   ar
    10    26    27   ar
    11    27     1    1
    12     1     2   ar
    13     2     3   ar
    14     3     4   ar
    15     4     5   ar
    16     5     7    1
    17     7     8   ar
    18     8     9   ar
    19     9    10   ar
    20    10    11   ar
    21    11    12   ar
    22    12    19    1
    23    19    20    1
    24    20    21    1
    25    12    13   ar
    26    13    14   ar
    27    14    15    1
    28    14    16   ar
    29    16    17   ar
    30    17    18    2
    31     5     6   ar
    32     6    39    1
    33    39    40    1
    34    27    28   ar
    35    36    37   ar
    36    37    38   ar
    37    38    34   ar
    38    28    22   ar
    39     6     1   ar
    40    17     7   ar
    41    16    10   ar
    42    21    19    1
    43    31    32    1
    44    25    29    1
    45    25    30    1
    46    40    41    1
@<TRIPOS>MOLECULE
*****
 41 46 0 0 0
SMALL
GASTEIGER

@<TRIPOS>ATOM
      1 C         138.9463  140.2639  158.2891 C.ar    1  UNL1        0.0358
      2 C         139.8454  139.2065  157.7203 C.ar    1  UNL1        0.0029
      3 C         140.8185  138.4913  158.6101 C.ar    1  UNL1        0.0016
      4 C         140.8925  138.8336  160.0686 C.ar    1  UNL1        0.0174
      5 C         139.9934  139.8910  160.6374 C.ar    1  UNL1        0.0653
      6 C         139.0203  140.6061  159.7477 C.ar    1  UNL1        0.0261
      7 N         140.0674  140.2332  162.0960 N.ar    1  UNL1       -0.2733
      8 C         140.7877  141.4717  162.5402 C.ar    1  UNL1        0.0829
      9 C         140.8617  141.8138  163.9987 C.ar    1  UNL1        0.0193
     10 C         140.2154  140.9175  165.0131 C.ar    1  UNL1        0.0080
     11 C         140.2894  141.2597  166.4717 C.ar    1  UNL1       -0.0039
     12 C         139.6431  140.3634  167.4861 C.ar    1  UNL1       -0.0203
     13 C         138.9228  139.1249  167.0418 C.ar    1  UNL1        0.0255
     14 C         138.8488  138.7827  165.5833 C.ar    1  UNL1        0.1444
     15 F         138.1285  137.5442  165.1391 F       1  UNL1       -0.2040
     16 C         139.4951  139.6790  164.5689 C.ar    1  UNL1        0.0839
     17 C         139.4211  139.3369  163.1104 C.ar    1  UNL1        0.2668
     18 O         138.7008  138.0983  162.6661 O.2     1  UNL1       -0.2665
     19 C         139.7171  140.7056  168.9446 C.3     1  UNL1        0.0224
     20 C         139.9480  140.2882  170.3668 C.3     1  UNL1        0.0047
     21 C         139.6143  141.7156  170.0488 C.3     1  UNL1        0.0047
     22 C         137.3374  143.0514  155.9674 C.ar    1  UNL1        0.2244
     23 N         136.0270  142.4093  155.6199 N.ar    1  UNL1       -0.1810
     24 C         135.6898  141.0520  156.1622 C.ar    1  UNL1        0.2174
     25 N         134.3795  140.4099  155.8148 N.pl3   1  UNL1       -0.3273
     26 N         136.6629  140.3369  157.0520 N.ar    1  UNL1       -0.1948
     27 C         137.9732  140.9790  157.3994 C.ar    1  UNL1        0.1678
     28 N         138.3104  142.3363  156.8571 N.ar    1  UNL1       -0.1943
     29 H         133.7408  140.8793  155.2308 H       1  UNL1        0.1452
     30 H         134.1581  139.5191  156.1707 H       1  UNL1        0.1452
     31 N         137.6746  144.4087  155.4251 N.pl3   1  UNL1       -0.2800
     32 H         136.9802  144.9485  154.9826 H       1  UNL1        0.1552
     33 C         142.2317  146.0959  157.4906 C.3     1  UNL1        0.1538
     34 N         141.1645  145.7191  156.5062 N.ar    1  UNL1       -0.2460
     35 C         139.8053  145.1810  156.8424 C.ar    1  UNL1        0.1114
     36 C         139.0697  144.9436  155.5568 C.ar    1  UNL1        0.0906
     37 C         139.9743  145.3350  154.4261 C.ar    1  UNL1        0.1363
     38 N         141.2689  145.8143  155.0129 N.ar    1  UNL1       -0.1662
     39 C         138.1212  141.6635  160.3165 C.3     1  UNL1        0.1651
     40 O         138.3818  143.1101  160.0171 O.3     1  UNL1       -0.3772
     41 H         139.2224  143.3775  160.4206 H       1  UNL1        0.2109
@<TRIPOS>BOND
     1    33    34    1
     2    34    35   ar
     3    35    36   ar
     4    36    31    1
     5    31    22    1
     6    22    23   ar
     7    23    24   ar
     8    24    25    1
     9    24    26   ar
    10    26    27   ar
    11    27     1    1
    12     1     2   ar
    13     2     3   ar
    14     3     4   ar
    15     4     5   ar
    16     5     7    1
    17     7     8   ar
    18     8     9   ar
    19     9    10   ar
    20    10    11   ar
    21    11    12   ar
    22    12    19    1
    23    19    20    1
    24    20    21    1
    25    12    13   ar
    26    13    14   ar
    27    14    15    1
    28    14    16   ar
    29    16    17   ar
    30    17    18    2
    31     5     6   ar
    32     6    39    1
    33    39    40    1
    34    27    28   ar
    35    36    37   ar
    36    37    38   ar
    37    38    34   ar
    38    28    22   ar
    39     6     1   ar
    40    17     7   ar
    41    16    10   ar
    42    21    19    1
    43    31    32    1
    44    25    29    1
    45    25    30    1
    46    40    41    1
