@<TRIPOS>MOLECULE
*****
 38 42 0 0 0
SMALL
GASTEIGER

@<TRIPOS>ATOM
      1 C         143.2556  142.0820  163.1054 C.ar    1  UNL1        0.0647
      2 C         144.5610  142.4184  163.7633 C.ar    1  UNL1        0.0365
      3 C         145.5087  141.3230  164.1531 C.ar    1  UNL1        0.1002
      4 N         145.1510  139.8911  163.8851 N.ar    1  UNL1       -0.2409
      5 C         143.8456  139.5547  163.2273 C.ar    1  UNL1        0.1147
      6 C         142.8979  140.6501  162.8374 C.ar    1  UNL1        0.0834
      7 N         141.5590  145.5322  159.6102 N.3     1  UNL1       -0.3189
      8 C         141.4597  144.9025  160.9679 C.3     1  UNL1        0.0994
      9 C         142.4073  143.8071  161.3578 C.3     1  UNL1        0.1088
     10 N         142.3080  143.1774  162.7156 N.pl3   1  UNL1       -0.3036
     11 C         141.2609  143.6431  163.6835 C.3     1  UNL1        0.1088
     12 C         140.3133  144.7385  163.2936 C.3     1  UNL1        0.0994
     13 N         139.2663  145.2042  164.2616 N.3     1  UNL1       -0.3189
     14 C         140.4126  145.3682  161.9358 C.3     1  UNL1        0.1419
     15 O         139.4650  146.4636  161.5460 O.3     1  UNL1       -0.3816
     16 H         142.3198  145.0972  159.0884 H       1  UNL1        0.1189
     17 H         141.7431  146.5304  159.7110 H       1  UNL1        0.1189
     18 H         139.3430  144.6711  165.1279 H       1  UNL1        0.1189
     19 H         138.3411  145.0625  163.8560 H       1  UNL1        0.1189
     20 H         138.8572  146.6420  162.2806 H       1  UNL1        0.2105
     21 N         141.5925  140.3137  162.1795 N.pl3   1  UNL1       -0.2803
     22 H         141.4394  140.5550  161.2374 H       1  UNL1        0.1551
     23 C         140.5203  139.6094  162.9571 C.ar    1  UNL1        0.2220
     24 N         139.5201  138.6400  162.4007 N.ar    1  UNL1       -0.2104
     25 C         138.6418  138.1825  163.5273 C.ar    1  UNL1        0.1210
     26 C         139.0992  138.8692  164.7800 C.ar    1  UNL1        0.1049
     27 C         138.6085  138.8054  166.1960 C.ar    1  UNL1        0.0225
     28 C         139.2789  139.6235  167.2596 C.ar    1  UNL1        0.0241
     29 C         140.4399  140.5054  166.9071 C.ar    1  UNL1        0.1212
     30 N         140.9306  140.5692  165.4911 N.ar    1  UNL1       -0.1612
     31 N         140.2602  139.7511  164.4276 N.ar    1  UNL1       -0.1983
     32 C         141.1102  141.3236  167.9708 C.ar    1  UNL1        0.1279
     33 N         140.4266  142.5382  168.5251 N.ar    1  UNL1       -0.2400
     34 C         141.0969  143.3564  169.5888 C.ar    1  UNL1        0.0990
     35 C         142.4509  142.9598  170.0981 C.ar    1  UNL1        0.0230
     36 C         143.1346  141.7451  169.5438 C.ar    1  UNL1        0.0328
     37 C         142.4642  140.9271  168.4802 C.ar    1  UNL1        0.1592
     38 F         143.1479  139.7124  167.9258 F       1  UNL1       -0.2025
@<TRIPOS>BOND
     1     8     7    1
     2     8     9    1
     3     9    10    1
     4    10     1    1
     5     1     2   ar
     6     2     3   ar
     7     3     4   ar
     8     4     5   ar
     9     5     6   ar
    10     6    21    1
    11    21    23    1
    12    23    24   ar
    13    24    25   ar
    14    25    26   ar
    15    26    27   ar
    16    27    28   ar
    17    28    29   ar
    18    29    32    1
    19    32    33   ar
    20    33    34   ar
    21    34    35   ar
    22    35    36   ar
    23    36    37   ar
    24    37    38    1
    25    29    30   ar
    26    30    31   ar
    27    10    11    1
    28    11    12    1
    29    12    13    1
    30    12    14    1
    31    14    15    1
    32    14     8    1
    33     6     1   ar
    34    31    23   ar
    35    31    26   ar
    36    37    32   ar
    37     7    16    1
    38     7    17    1
    39    21    22    1
    40    13    18    1
    41    13    19    1
    42    15    20    1
@<TRIPOS>MOLECULE
*****
 38 42 0 0 0
SMALL
GASTEIGER

@<TRIPOS>ATOM
      1 C         143.2532  142.0854  163.1021 C.ar    1  UNL1        0.0647
      2 C         144.5583  142.4233  163.7596 C.ar    1  UNL1        0.0365
      3 C         145.5069  141.3290  164.1503 C.ar    1  UNL1        0.1002
      4 N         145.1504  139.8966  163.8834 N.ar    1  UNL1       -0.2409
      5 C         143.8453  139.5587  163.2258 C.ar    1  UNL1        0.1147
      6 C         142.8967  140.6530  162.8352 C.ar    1  UNL1        0.0834
      7 N         139.2597  145.2034  164.2551 N.3     1  UNL1       -0.3189
      8 C         140.3079  144.7387  163.2880 C.3     1  UNL1        0.0994
      9 C         141.2565  143.6444  163.6787 C.3     1  UNL1        0.1088
     10 N         142.3046  143.1797  162.7115 N.pl3   1  UNL1       -0.3036
     11 C         142.4042  143.8094  161.3537 C.3     1  UNL1        0.1088
     12 C         141.4556  144.9038  160.9631 C.3     1  UNL1        0.0994
     13 N         141.5553  145.5334  159.6052 N.3     1  UNL1       -0.3189
     14 C         140.4075  145.3684  161.9303 C.3     1  UNL1        0.1419
     15 O         139.4589  146.4628  161.5396 O.3     1  UNL1       -0.3816
     16 H         139.3363  144.6707  165.1216 H       1  UNL1        0.1189
     17 H         138.3351  145.0607  163.8489 H       1  UNL1        0.1189
     18 H         142.3169  145.0990  159.0841 H       1  UNL1        0.1189
     19 H         141.7383  146.5318  159.7060 H       1  UNL1        0.1189
     20 H         139.6584  146.7567  160.6370 H       1  UNL1        0.2105
     21 N         141.5915  140.3150  162.1776 N.pl3   1  UNL1       -0.2803
     22 H         141.4382  140.5553  161.2353 H       1  UNL1        0.1551
     23 C         140.5197  139.6109  162.9559 C.ar    1  UNL1        0.2220
     24 N         139.5186  138.6420  162.4001 N.ar    1  UNL1       -0.2104
     25 C         138.6412  138.1844  163.5273 C.ar    1  UNL1        0.1210
     26 C         139.1000  138.8706  164.7798 C.ar    1  UNL1        0.1049
     27 C         138.6106  138.8064  166.1963 C.ar    1  UNL1        0.0225
     28 C         139.2822  139.6240  167.2595 C.ar    1  UNL1        0.0241
     29 C         140.4432  140.5056  166.9064 C.ar    1  UNL1        0.1212
     30 N         140.9326  140.5697  165.4899 N.ar    1  UNL1       -0.1612
     31 N         140.2610  139.7522  164.4267 N.ar    1  UNL1       -0.1983
     32 C         141.1148  141.3231  167.9697 C.ar    1  UNL1        0.1279
     33 N         140.4317  142.5374  168.5256 N.ar    1  UNL1       -0.2400
     34 C         141.1033  143.3549  169.5889 C.ar    1  UNL1        0.0990
     35 C         142.4580  142.9582  170.0964 C.ar    1  UNL1        0.0230
     36 C         143.1411  141.7439  169.5404 C.ar    1  UNL1        0.0328
     37 C         142.4695  140.9264  168.4771 C.ar    1  UNL1        0.1592
     38 F         143.1525  139.7121  167.9212 F       1  UNL1       -0.2025
@<TRIPOS>BOND
     1     8     7    1
     2     8     9    1
     3     9    10    1
     4    10     1    1
     5     1     2   ar
     6     2     3   ar
     7     3     4   ar
     8     4     5   ar
     9     5     6   ar
    10     6    21    1
    11    21    23    1
    12    23    24   ar
    13    24    25   ar
    14    25    26   ar
    15    26    27   ar
    16    27    28   ar
    17    28    29   ar
    18    29    32    1
    19    32    33   ar
    20    33    34   ar
    21    34    35   ar
    22    35    36   ar
    23    36    37   ar
    24    37    38    1
    25    29    30   ar
    26    30    31   ar
    27    10    11    1
    28    11    12    1
    29    12    13    1
    30    12    14    1
    31    14    15    1
    32    14     8    1
    33     6     1   ar
    34    31    23   ar
    35    31    26   ar
    36    37    32   ar
    37     7    16    1
    38     7    17    1
    39    21    22    1
    40    13    18    1
    41    13    19    1
    42    15    20    1
@<TRIPOS>MOLECULE
*****
 38 42 0 0 0
SMALL
GASTEIGER

@<TRIPOS>ATOM
      1 C         142.2956  141.1795  160.8433 C.ar    1  UNL1        0.0647
      2 C         142.7242  141.2499  159.4076 C.ar    1  UNL1        0.0365
      3 C         143.5528  140.1476  158.8172 C.ar    1  UNL1        0.1002
      4 N         143.9528  138.9749  159.6626 N.ar    1  UNL1       -0.2409
      5 C         143.5242  138.9045  161.0983 C.ar    1  UNL1        0.1147
      6 C         142.6956  140.0067  161.6886 C.ar    1  UNL1        0.0834
      7 N         141.9721  145.6793  163.4214 N.3     1  UNL1       -0.3189
      8 C         141.3053  144.5316  162.7227 C.3     1  UNL1        0.0994
      9 C         142.1339  143.4294  162.1323 C.3     1  UNL1        0.1088
     10 N         141.4671  142.2817  161.4336 N.pl3   1  UNL1       -0.3036
     11 C         139.9717  142.2364  161.3252 C.3     1  UNL1        0.1088
     12 C         139.1431  143.3386  161.9155 C.3     1  UNL1        0.0994
     13 N         137.6477  143.2932  161.8070 N.3     1  UNL1       -0.3189
     14 C         139.8099  144.4863  162.6143 C.3     1  UNL1        0.1419
     15 O         138.9814  145.5885  163.2046 O.3     1  UNL1       -0.3816
     16 H         142.9834  145.5482  163.4015 H       1  UNL1        0.1189
     17 H         141.6535  145.7193  164.3896 H       1  UNL1        0.1189
     18 H         137.3687  142.4501  161.3053 H       1  UNL1        0.1189
     19 H         137.3184  144.1150  161.3005 H       1  UNL1        0.1189
     20 H         138.0417  145.4062  163.0477 H       1  UNL1        0.2105
     21 N         142.2670  139.9363  163.1245 N.pl3   1  UNL1       -0.2803
     22 H         142.8393  140.3187  163.8284 H       1  UNL1        0.1551
     23 C         140.9665  139.2831  163.4877 C.ar    1  UNL1        0.2220
     24 N         140.1204  138.4389  162.5814 N.ar    1  UNL1       -0.2104
     25 C         138.9147  137.9935  163.3547 C.ar    1  UNL1        0.1210
     26 C         139.0157  138.5623  164.7389 C.ar    1  UNL1        0.1049
     27 C         138.1168  138.4576  165.9352 C.ar    1  UNL1        0.0225
     28 C         138.4860  139.1497  167.2136 C.ar    1  UNL1        0.0241
     29 C         139.7541  139.9467  167.2959 C.ar    1  UNL1        0.1212
     30 N         140.6530  140.0515  166.0997 N.ar    1  UNL1       -0.1612
     31 N         140.2838  139.3593  164.8212 N.ar    1  UNL1       -0.1983
     32 C         140.1232  140.6390  168.5744 C.ar    1  UNL1        0.1279
     33 N         140.2929  139.8446  169.8354 N.ar    1  UNL1       -0.2400
     34 C         140.6621  140.5368  171.1140 C.ar    1  UNL1        0.0990
     35 C         140.8616  142.0234  171.1314 C.ar    1  UNL1        0.0230
     36 C         140.6919  142.8178  169.8703 C.ar    1  UNL1        0.0328
     37 C         140.3227  142.1255  168.5919 C.ar    1  UNL1        0.1592
     38 F         140.1530  142.9199  167.3308 F       1  UNL1       -0.2025
@<TRIPOS>BOND
     1     8     7    1
     2     8     9    1
     3     9    10    1
     4    10     1    1
     5     1     2   ar
     6     2     3   ar
     7     3     4   ar
     8     4     5   ar
     9     5     6   ar
    10     6    21    1
    11    21    23    1
    12    23    24   ar
    13    24    25   ar
    14    25    26   ar
    15    26    27   ar
    16    27    28   ar
    17    28    29   ar
    18    29    32    1
    19    32    33   ar
    20    33    34   ar
    21    34    35   ar
    22    35    36   ar
    23    36    37   ar
    24    37    38    1
    25    29    30   ar
    26    30    31   ar
    27    10    11    1
    28    11    12    1
    29    12    13    1
    30    12    14    1
    31    14    15    1
    32    14     8    1
    33     6     1   ar
    34    31    23   ar
    35    31    26   ar
    36    37    32   ar
    37     7    16    1
    38     7    17    1
    39    21    22    1
    40    13    18    1
    41    13    19    1
    42    15    20    1
@<TRIPOS>MOLECULE
*****
 38 42 0 0 0
SMALL
GASTEIGER

@<TRIPOS>ATOM
      1 C         142.5048  140.8553  160.5575 C.ar    1  UNL1        0.0647
      2 C         142.9120  140.7633  159.1168 C.ar    1  UNL1        0.0365
      3 C         143.3128  139.4407  158.5337 C.ar    1  UNL1        0.1002
      4 N         143.3064  138.2100  159.3912 N.ar    1  UNL1       -0.2409
      5 C         142.8992  138.3020  160.8319 C.ar    1  UNL1        0.1147
      6 C         142.4984  139.6246  161.4151 C.ar    1  UNL1        0.0834
      7 N         138.8108  144.2927  161.7975 N.3     1  UNL1       -0.3189
      8 C         140.2570  143.8965  161.7607 C.3     1  UNL1        0.0994
      9 C         140.6578  142.5740  161.1775 C.3     1  UNL1        0.1088
     10 N         142.1041  142.1779  161.1407 N.pl3   1  UNL1       -0.3036
     11 C         143.1496  143.1043  161.6871 C.3     1  UNL1        0.1088
     12 C         142.7488  144.4269  162.2703 C.3     1  UNL1        0.0994
     13 N         143.7944  145.3534  162.8167 N.3     1  UNL1       -0.3189
     14 C         141.3025  144.8230  162.3071 C.3     1  UNL1        0.1419
     15 O         140.9017  146.1456  162.8903 O.3     1  UNL1       -0.3816
     16 H         138.2443  143.5500  161.3877 H       1  UNL1        0.1189
     17 H         138.6803  145.1530  161.2652 H       1  UNL1        0.1189
     18 H         144.7150  144.9272  162.7110 H       1  UNL1        0.1189
     19 H         143.6116  145.5273  163.8050 H       1  UNL1        0.1189
     20 H         141.6925  146.6174  163.1953 H       1  UNL1        0.2105
     21 N         142.0912  139.7165  162.8559 N.pl3   1  UNL1       -0.2803
     22 H         142.6647  140.1911  163.5002 H       1  UNL1        0.1551
     23 C         140.8102  139.0854  163.3150 C.ar    1  UNL1        0.2220
     24 N         139.9144  138.2088  162.4910 N.ar    1  UNL1       -0.2104
     25 C         138.7507  137.8018  163.3454 C.ar    1  UNL1        0.1210
     26 C         138.9272  138.4269  164.6975 C.ar    1  UNL1        0.1049
     27 C         138.0934  138.3762  165.9433 C.ar    1  UNL1        0.0225
     28 C         138.5325  139.1189  167.1703 C.ar    1  UNL1        0.0241
     29 C         139.8054  139.9122  167.1515 C.ar    1  UNL1        0.1212
     30 N         140.6392  139.9629  165.9057 N.ar    1  UNL1       -0.1612
     31 N         140.2001  139.2203  164.6787 N.ar    1  UNL1       -0.1983
     32 C         140.2444  140.6549  168.3786 C.ar    1  UNL1        0.1279
     33 N         140.4459  139.9179  169.6694 N.ar    1  UNL1       -0.2400
     34 C         140.8850  140.6606  170.8965 C.ar    1  UNL1        0.0990
     35 C         141.1225  142.1403  170.8328 C.ar    1  UNL1        0.0230
     36 C         140.9210  142.8773  169.5419 C.ar    1  UNL1        0.0328
     37 C         140.4820  142.1346  168.3149 C.ar    1  UNL1        0.1592
     38 F         140.2805  142.8716  167.0240 F       1  UNL1       -0.2025
@<TRIPOS>BOND
     1     8     7    1
     2     8     9    1
     3     9    10    1
     4    10     1    1
     5     1     2   ar
     6     2     3   ar
     7     3     4   ar
     8     4     5   ar
     9     5     6   ar
    10     6    21    1
    11    21    23    1
    12    23    24   ar
    13    24    25   ar
    14    25    26   ar
    15    26    27   ar
    16    27    28   ar
    17    28    29   ar
    18    29    32    1
    19    32    33   ar
    20    33    34   ar
    21    34    35   ar
    22    35    36   ar
    23    36    37   ar
    24    37    38    1
    25    29    30   ar
    26    30    31   ar
    27    10    11    1
    28    11    12    1
    29    12    13    1
    30    12    14    1
    31    14    15    1
    32    14     8    1
    33     6     1   ar
    34    31    23   ar
    35    31    26   ar
    36    37    32   ar
    37     7    16    1
    38     7    17    1
    39    21    22    1
    40    13    18    1
    41    13    19    1
    42    15    20    1
@<TRIPOS>MOLECULE
*****
 38 42 0 0 0
SMALL
GASTEIGER

@<TRIPOS>ATOM
      1 C         142.2935  141.7756  166.5332 C.ar    1  UNL1        0.0647
      2 C         142.5099  142.1209  167.9767 C.ar    1  UNL1        0.0365
      3 C         142.8517  141.0434  168.9626 C.ar    1  UNL1        0.1002
      4 N         142.9772  139.6204  168.5049 N.ar    1  UNL1       -0.2409
      5 C         142.7608  139.2751  167.0614 C.ar    1  UNL1        0.1147
      6 C         142.4189  140.3527  166.0755 C.ar    1  UNL1        0.0834
      7 N         143.7692  145.1783  162.8940 N.3     1  UNL1       -0.3189
      8 C         142.6895  144.5545  163.7277 C.3     1  UNL1        0.0994
      9 C         143.0314  143.4769  164.7136 C.3     1  UNL1        0.1088
     10 N         141.9516  142.8532  165.5473 N.pl3   1  UNL1       -0.3036
     11 C         140.5301  143.3071  165.3952 C.3     1  UNL1        0.1088
     12 C         140.1882  144.3846  164.4093 C.3     1  UNL1        0.0994
     13 N         138.7666  144.8384  164.2572 N.3     1  UNL1       -0.3189
     14 C         141.2679  145.0084  163.5756 C.3     1  UNL1        0.1419
     15 O         140.9261  146.0859  162.5897 O.3     1  UNL1       -0.3816
     16 H         144.6667  144.7529  163.1262 H       1  UNL1        0.1189
     17 H         143.8087  146.1799  163.0828 H       1  UNL1        0.1189
     18 H         138.1713  144.3115  164.8963 H       1  UNL1        0.1189
     19 H         138.4597  144.6794  163.2975 H       1  UNL1        0.1189
     20 H         139.9719  146.2584  162.6171 H       1  UNL1        0.2105
     21 N         142.2025  140.0073  164.6319 N.pl3   1  UNL1       -0.2803
     22 H         142.9748  139.8917  164.0323 H       1  UNL1        0.1551
     23 C         140.8095  139.8381  164.1018 C.ar    1  UNL1        0.2220
     24 N         139.7804  138.8768  164.6184 N.ar    1  UNL1       -0.2104
     25 C         138.5359  139.0451  163.7980 C.ar    1  UNL1        0.1210
     26 C         138.7960  140.1104  162.7744 C.ar    1  UNL1        0.1049
     27 C         137.9348  140.6974  161.6957 C.ar    1  UNL1        0.0225
     28 C         138.4788  141.7745  160.8047 C.ar    1  UNL1        0.0241
     29 C         139.8840  142.2646  160.9925 C.ar    1  UNL1        0.1212
     30 N         140.7452  141.6775  162.0713 N.ar    1  UNL1       -0.1612
     31 N         140.2012  140.6004  162.9622 N.ar    1  UNL1       -0.1983
     32 C         140.4280  143.3417  160.1015 C.ar    1  UNL1        0.1279
     33 N         139.7589  144.6833  160.0521 N.ar    1  UNL1       -0.2400
     34 C         140.3029  145.7604  159.1611 C.ar    1  UNL1        0.0990
     35 C         141.5161  145.4959  158.3195 C.ar    1  UNL1        0.0230
     36 C         142.1852  144.1543  158.3688 C.ar    1  UNL1        0.0328
     37 C         141.6412  143.0772  159.2598 C.ar    1  UNL1        0.1592
     38 F         142.3103  141.7356  159.3092 F       1  UNL1       -0.2025
@<TRIPOS>BOND
     1     8     7    1
     2     8     9    1
     3     9    10    1
     4    10     1    1
     5     1     2   ar
     6     2     3   ar
     7     3     4   ar
     8     4     5   ar
     9     5     6   ar
    10     6    21    1
    11    21    23    1
    12    23    24   ar
    13    24    25   ar
    14    25    26   ar
    15    26    27   ar
    16    27    28   ar
    17    28    29   ar
    18    29    32    1
    19    32    33   ar
    20    33    34   ar
    21    34    35   ar
    22    35    36   ar
    23    36    37   ar
    24    37    38    1
    25    29    30   ar
    26    30    31   ar
    27    10    11    1
    28    11    12    1
    29    12    13    1
    30    12    14    1
    31    14    15    1
    32    14     8    1
    33     6     1   ar
    34    31    23   ar
    35    31    26   ar
    36    37    32   ar
    37     7    16    1
    38     7    17    1
    39    21    22    1
    40    13    18    1
    41    13    19    1
    42    15    20    1
@<TRIPOS>MOLECULE
*****
 38 42 0 0 0
SMALL
GASTEIGER

@<TRIPOS>ATOM
      1 C         143.0664  141.4252  166.6346 C.ar    1  UNL1        0.0647
      2 C         143.5246  142.8520  166.5697 C.ar    1  UNL1        0.0365
      3 C         144.3601  143.3197  165.4151 C.ar    1  UNL1        0.1002
      4 N         144.7374  142.3605  164.3253 N.ar    1  UNL1       -0.2409
      5 C         144.2793  140.9337  164.3902 C.ar    1  UNL1        0.1147
      6 C         143.4438  140.4660  165.5448 C.ar    1  UNL1        0.0834
      7 N         138.5959  139.5197  168.4739 N.3     1  UNL1       -0.3189
      8 C         139.9957  140.0047  168.7089 C.3     1  UNL1        0.0994
      9 C         140.8312  140.4724  167.5542 C.3     1  UNL1        0.1088
     10 N         142.2310  140.9575  167.7893 N.pl3   1  UNL1       -0.3036
     11 C         142.7953  140.9748  169.1790 C.3     1  UNL1        0.1088
     12 C         141.9598  140.5071  170.3336 C.3     1  UNL1        0.0994
     13 N         142.5242  140.5244  171.7233 N.3     1  UNL1       -0.3189
     14 C         140.5600  140.0220  170.0986 C.3     1  UNL1        0.1419
     15 O         139.7245  139.5543  171.2532 O.3     1  UNL1       -0.3816
     16 H         138.3789  139.5764  167.4789 H       1  UNL1        0.1189
     17 H         137.9421  140.1011  168.9982 H       1  UNL1        0.1189
     18 H         143.4795  140.8810  171.6978 H       1  UNL1        0.1189
     19 H         142.5248  139.5773  172.1019 H       1  UNL1        0.1189
     20 H         140.2358  139.6304  172.0740 H       1  UNL1        0.2105
     21 N         142.9856  139.0391  165.6097 N.pl3   1  UNL1       -0.2803
     22 H         143.3989  138.4181  166.2521 H       1  UNL1        0.1551
     23 C         141.8977  138.5585  164.6957 C.ar    1  UNL1        0.2220
     24 N         141.4720  137.1328  164.5050 N.ar    1  UNL1       -0.2104
     25 C         140.3557  137.1124  163.5034 C.ar    1  UNL1        0.1210
     26 C         140.0914  138.5254  163.0749 C.ar    1  UNL1        0.1049
     27 C         139.1061  139.1137  162.1090 C.ar    1  UNL1        0.0225
     28 C         139.0738  140.5957  161.8800 C.ar    1  UNL1        0.0241
     29 C         140.0268  141.4894  162.6169 C.ar    1  UNL1        0.1212
     30 N         141.0121  140.9012  163.5828 N.ar    1  UNL1       -0.1612
     31 N         141.0444  139.4191  163.8118 N.ar    1  UNL1       -0.1983
     32 C         139.9945  142.9715  162.3878 C.ar    1  UNL1        0.1279
     33 N         140.9488  143.6014  161.4171 N.ar    1  UNL1       -0.2400
     34 C         140.9165  145.0835  161.1880 C.ar    1  UNL1        0.0990
     35 C         139.9297  145.9357  161.9297 C.ar    1  UNL1        0.0230
     36 C         138.9753  145.3057  162.9005 C.ar    1  UNL1        0.0328
     37 C         139.0077  143.8237  163.1295 C.ar    1  UNL1        0.1592
     38 F         138.0533  143.1938  164.1003 F       1  UNL1       -0.2025
@<TRIPOS>BOND
     1     8     7    1
     2     8     9    1
     3     9    10    1
     4    10     1    1
     5     1     2   ar
     6     2     3   ar
     7     3     4   ar
     8     4     5   ar
     9     5     6   ar
    10     6    21    1
    11    21    23    1
    12    23    24   ar
    13    24    25   ar
    14    25    26   ar
    15    26    27   ar
    16    27    28   ar
    17    28    29   ar
    18    29    32    1
    19    32    33   ar
    20    33    34   ar
    21    34    35   ar
    22    35    36   ar
    23    36    37   ar
    24    37    38    1
    25    29    30   ar
    26    30    31   ar
    27    10    11    1
    28    11    12    1
    29    12    13    1
    30    12    14    1
    31    14    15    1
    32    14     8    1
    33     6     1   ar
    34    31    23   ar
    35    31    26   ar
    36    37    32   ar
    37     7    16    1
    38     7    17    1
    39    21    22    1
    40    13    18    1
    41    13    19    1
    42    15    20    1
@<TRIPOS>MOLECULE
*****
 38 42 0 0 0
SMALL
GASTEIGER

@<TRIPOS>ATOM
      1 C         141.3617  143.6811  161.2474 C.ar    1  UNL1        0.0647
      2 C         141.4630  144.3119  159.8903 C.ar    1  UNL1        0.0365
      3 C         140.5845  145.4750  159.5363 C.ar    1  UNL1        0.1002
      4 N         139.6046  146.0074  160.5395 N.ar    1  UNL1       -0.2409
      5 C         139.5032  145.3766  161.8966 C.ar    1  UNL1        0.1147
      6 C         140.3817  144.2135  162.2505 C.ar    1  UNL1        0.0834
      7 N         145.9171  141.8295  162.9265 N.3     1  UNL1       -0.3189
      8 C         144.5179  141.5922  162.4409 C.3     1  UNL1        0.0994
      9 C         143.6394  142.7553  162.0869 C.3     1  UNL1        0.1088
     10 N         142.2402  142.5179  161.6014 N.pl3   1  UNL1       -0.3036
     11 C         141.7194  141.1174  161.4698 C.3     1  UNL1        0.1088
     12 C         142.5979  139.9542  161.8238 C.3     1  UNL1        0.0994
     13 N         142.0771  138.5537  161.6921 N.3     1  UNL1       -0.3189
     14 C         143.9972  140.1916  162.3093 C.3     1  UNL1        0.1419
     15 O         144.8757  139.0285  162.6633 O.3     1  UNL1       -0.3816
     16 H         146.1019  142.8322  162.9542 H       1  UNL1        0.1189
     17 H         146.5778  141.3794  162.2929 H       1  UNL1        0.1189
     18 H         141.1160  138.5789  161.3516 H       1  UNL1        0.1189
     19 H         142.1033  138.0942  162.6024 H       1  UNL1        0.1189
     20 H         144.3892  138.2012  162.5224 H       1  UNL1        0.2105
     21 N         140.2803  143.5826  163.6078 N.pl3   1  UNL1       -0.2803
     22 H         140.7943  143.9519  164.3619 H       1  UNL1        0.1551
     23 C         139.3958  142.3892  163.8159 C.ar    1  UNL1        0.2220
     24 N         138.3875  141.8583  162.8405 N.ar    1  UNL1       -0.2104
     25 C         137.7328  140.6581  163.4578 C.ar    1  UNL1        0.1210
     26 C         138.3364  140.4474  164.8147 C.ar    1  UNL1        0.1049
     27 C         138.0830  139.4195  165.8774 C.ar    1  UNL1        0.0225
     28 C         138.8574  139.4616  167.1613 C.ar    1  UNL1        0.0241
     29 C         139.8852  140.5314  167.3826 C.ar    1  UNL1        0.1212
     30 N         140.1386  141.5593  166.3200 N.ar    1  UNL1       -0.1612
     31 N         139.3642  141.5173  165.0361 N.ar    1  UNL1       -0.1983
     32 C         140.6596  140.5734  168.6666 C.ar    1  UNL1        0.1279
     33 N         140.0710  141.2375  169.8760 N.ar    1  UNL1       -0.2400
     34 C         140.8454  141.2794  171.1601 C.ar    1  UNL1        0.0990
     35 C         142.2083  140.6574  171.2346 C.ar    1  UNL1        0.0230
     36 C         142.7968  139.9933  170.0251 C.ar    1  UNL1        0.0328
     37 C         142.0224  139.9514  168.7412 C.ar    1  UNL1        0.1592
     38 F         142.6110  139.2873  167.5317 F       1  UNL1       -0.2025
@<TRIPOS>BOND
     1     8     7    1
     2     8     9    1
     3     9    10    1
     4    10     1    1
     5     1     2   ar
     6     2     3   ar
     7     3     4   ar
     8     4     5   ar
     9     5     6   ar
    10     6    21    1
    11    21    23    1
    12    23    24   ar
    13    24    25   ar
    14    25    26   ar
    15    26    27   ar
    16    27    28   ar
    17    28    29   ar
    18    29    32    1
    19    32    33   ar
    20    33    34   ar
    21    34    35   ar
    22    35    36   ar
    23    36    37   ar
    24    37    38    1
    25    29    30   ar
    26    30    31   ar
    27    10    11    1
    28    11    12    1
    29    12    13    1
    30    12    14    1
    31    14    15    1
    32    14     8    1
    33     6     1   ar
    34    31    23   ar
    35    31    26   ar
    36    37    32   ar
    37     7    16    1
    38     7    17    1
    39    21    22    1
    40    13    18    1
    41    13    19    1
    42    15    20    1
@<TRIPOS>MOLECULE
*****
 38 42 0 0 0
SMALL
GASTEIGER

@<TRIPOS>ATOM
      1 C         140.0748  141.6896  160.0932 C.ar    1  UNL1        0.0647
      2 C         139.8435  141.8120  158.6163 C.ar    1  UNL1        0.0365
      3 C         138.8794  140.8911  157.9291 C.ar    1  UNL1        0.1002
      4 N         138.1463  139.8476  158.7189 N.ar    1  UNL1       -0.2409
      5 C         138.3775  139.7252  160.1959 C.ar    1  UNL1        0.1147
      6 C         139.3417  140.6461  160.8831 C.ar    1  UNL1        0.0834
      7 N         144.9411  142.9258  161.4312 N.3     1  UNL1       -0.3189
      8 C         143.4721  143.2286  161.4493 C.3     1  UNL1        0.0994
      9 C         142.5079  142.3077  160.7622 C.3     1  UNL1        0.1088
     10 N         141.0390  142.6105  160.7804 N.pl3   1  UNL1       -0.3036
     11 C         140.5342  143.8343  161.4858 C.3     1  UNL1        0.1088
     12 C         141.4984  144.7552  162.1729 C.3     1  UNL1        0.0994
     13 N         140.9935  145.9790  162.8783 N.3     1  UNL1       -0.3189
     14 C         142.9673  144.4524  162.1547 C.3     1  UNL1        0.1419
     15 O         143.9315  145.3733  162.8419 O.3     1  UNL1       -0.3816
     16 H         145.1041  142.0634  160.9116 H       1  UNL1        0.1189
     17 H         145.2773  142.8152  162.3878 H       1  UNL1        0.1189
     18 H         139.9784  146.0275  162.7906 H       1  UNL1        0.1189
     19 H         141.4111  146.8098  162.4590 H       1  UNL1        0.1189
     20 H         143.4446  146.1092  163.2447 H       1  UNL1        0.2105
     21 N         139.5729  140.5236  162.3602 N.pl3   1  UNL1       -0.2803
     22 H         138.9797  140.9910  162.9917 H       1  UNL1        0.1551
     23 C         140.7079  139.6888  162.8749 C.ar    1  UNL1        0.2220
     24 N         141.5093  138.7026  162.0780 N.ar    1  UNL1       -0.2104
     25 C         142.5374  138.0981  162.9876 C.ar    1  UNL1        0.1210
     26 C         142.3715  138.7106  164.3467 C.ar    1  UNL1        0.1049
     27 C         143.1039  138.5002  165.6387 C.ar    1  UNL1        0.0225
     28 C         142.7056  139.2729  166.8610 C.ar    1  UNL1        0.0241
     29 C         141.5749  140.2561  166.7914 C.ar    1  UNL1        0.1212
     30 N         140.8425  140.4665  165.4994 N.ar    1  UNL1       -0.1612
     31 N         141.2408  139.6938  164.2771 N.ar    1  UNL1       -0.1983
     32 C         141.1766  141.0288  168.0139 C.ar    1  UNL1        0.1279
     33 N         139.9552  140.6305  168.7880 N.ar    1  UNL1       -0.2400
     34 C         139.5569  141.4032  170.0105 C.ar    1  UNL1        0.0990
     35 C         140.3801  142.5743  170.4587 C.ar    1  UNL1        0.0230
     36 C         141.6016  142.9727  169.6844 C.ar    1  UNL1        0.0328
     37 C         141.9998  142.1999  168.4620 C.ar    1  UNL1        0.1592
     38 F         143.2213  142.5983  167.6878 F       1  UNL1       -0.2025
@<TRIPOS>BOND
     1     8     7    1
     2     8     9    1
     3     9    10    1
     4    10     1    1
     5     1     2   ar
     6     2     3   ar
     7     3     4   ar
     8     4     5   ar
     9     5     6   ar
    10     6    21    1
    11    21    23    1
    12    23    24   ar
    13    24    25   ar
    14    25    26   ar
    15    26    27   ar
    16    27    28   ar
    17    28    29   ar
    18    29    32    1
    19    32    33   ar
    20    33    34   ar
    21    34    35   ar
    22    35    36   ar
    23    36    37   ar
    24    37    38    1
    25    29    30   ar
    26    30    31   ar
    27    10    11    1
    28    11    12    1
    29    12    13    1
    30    12    14    1
    31    14    15    1
    32    14     8    1
    33     6     1   ar
    34    31    23   ar
    35    31    26   ar
    36    37    32   ar
    37     7    16    1
    38     7    17    1
    39    21    22    1
    40    13    18    1
    41    13    19    1
    42    15    20    1
@<TRIPOS>MOLECULE
*****
 38 42 0 0 0
SMALL
GASTEIGER

@<TRIPOS>ATOM
      1 C         142.6366  143.2773  159.3678 C.ar    1  UNL1        0.0647
      2 C         142.7639  143.0235  157.8950 C.ar    1  UNL1        0.0365
      3 C         142.2150  144.0155  156.9128 C.ar    1  UNL1        0.1002
      4 N         141.5389  145.2613  157.4034 N.ar    1  UNL1       -0.2409
      5 C         141.4116  145.5151  158.8762 C.ar    1  UNL1        0.1147
      6 C         141.9605  144.5231  159.8585 C.ar    1  UNL1        0.0834
      7 N         142.3963  138.6311  161.6820 N.3     1  UNL1       -0.3189
      8 C         143.0652  139.9622  161.5071 C.3     1  UNL1        0.0994
      9 C         142.5164  140.9542  160.5249 C.3     1  UNL1        0.1088
     10 N         143.1854  142.2853  160.3501 N.pl3   1  UNL1       -0.3036
     11 C         144.4033  142.6244  161.1575 C.3     1  UNL1        0.1088
     12 C         144.9521  141.6325  162.1397 C.3     1  UNL1        0.0994
     13 N         146.1699  141.9717  162.9470 N.3     1  UNL1       -0.3189
     14 C         144.2831  140.3014  162.3145 C.3     1  UNL1        0.1419
     15 O         144.8319  139.3094  163.2967 O.3     1  UNL1       -0.3816
     16 H         141.5907  138.5710  161.0592 H       1  UNL1        0.1189
     17 H         142.0870  138.5305  162.6487 H       1  UNL1        0.1189
     18 H         146.4904  142.9084  162.7017 H       1  UNL1        0.1189
     19 H         146.9085  141.2968  162.7483 H       1  UNL1        0.1189
     20 H         145.6144  139.6835  163.7311 H       1  UNL1        0.2105
     21 N         141.8331  144.7770  161.3314 N.pl3   1  UNL1       -0.2803
     22 H         142.6080  145.1035  161.8434 H       1  UNL1        0.1551
     23 C         140.5252  144.5334  162.0242 C.ar    1  UNL1        0.2220
     24 N         139.2481  145.2832  161.7857 N.ar    1  UNL1       -0.2104
     25 C         138.1983  144.7104  162.6912 C.ar    1  UNL1        0.1210
     26 C         138.8266  143.6066  163.4892 C.ar    1  UNL1        0.1049
     27 C         138.2750  142.6869  164.5380 C.ar    1  UNL1        0.0225
     28 C         139.1615  141.6579  165.1745 C.ar    1  UNL1        0.0241
     29 C         140.5996  141.5485  164.7623 C.ar    1  UNL1        0.1212
     30 N         141.1512  142.4681  163.7135 N.ar    1  UNL1       -0.1612
     31 N         140.2647  143.4972  163.0770 N.ar    1  UNL1       -0.1983
     32 C         141.4861  140.5194  165.3989 C.ar    1  UNL1        0.1279
     33 N         141.7429  139.2163  164.7019 N.ar    1  UNL1       -0.2400
     34 C         142.6294  138.1872  165.3385 C.ar    1  UNL1        0.0990
     35 C         143.2590  138.4613  166.6721 C.ar    1  UNL1        0.0230
     36 C         143.0021  139.7645  167.3691 C.ar    1  UNL1        0.0328
     37 C         142.1157  140.7935  166.7325 C.ar    1  UNL1        0.1592
     38 F         141.8587  142.0967  167.4295 F       1  UNL1       -0.2025
@<TRIPOS>BOND
     1     8     7    1
     2     8     9    1
     3     9    10    1
     4    10     1    1
     5     1     2   ar
     6     2     3   ar
     7     3     4   ar
     8     4     5   ar
     9     5     6   ar
    10     6    21    1
    11    21    23    1
    12    23    24   ar
    13    24    25   ar
    14    25    26   ar
    15    26    27   ar
    16    27    28   ar
    17    28    29   ar
    18    29    32    1
    19    32    33   ar
    20    33    34   ar
    21    34    35   ar
    22    35    36   ar
    23    36    37   ar
    24    37    38    1
    25    29    30   ar
    26    30    31   ar
    27    10    11    1
    28    11    12    1
    29    12    13    1
    30    12    14    1
    31    14    15    1
    32    14     8    1
    33     6     1   ar
    34    31    23   ar
    35    31    26   ar
    36    37    32   ar
    37     7    16    1
    38     7    17    1
    39    21    22    1
    40    13    18    1
    41    13    19    1
    42    15    20    1
