@<TRIPOS>MOLECULE
*****
 22 25 0 0 0
SMALL
GASTEIGER

@<TRIPOS>ATOM
      1 N         140.4580  139.6756  167.5841 N.am    1  UNL1       -0.2702
      2 C         138.9999  139.6695  167.2323 C.3     1  UNL1        0.1003
      3 C         138.5698  139.3946  165.8219 C.3     1  UNL1        0.0654
      4 C         139.5978  139.1257  164.7632 C.ar    1  UNL1        0.0432
      5 C         141.0560  139.1318  165.1149 C.ar    1  UNL1        0.0666
      6 C         141.8349  138.8350  163.8678 C.ar    1  UNL1        0.0212
      7 C         143.3074  138.7129  163.6094 C.ar    1  UNL1        0.0016
      8 C         143.8031  138.4013  162.2284 C.ar    1  UNL1        0.0001
      9 C         142.8264  138.2118  161.1059 C.ar    1  UNL1        0.0015
     10 C         141.3539  138.3340  161.3643 C.ar    1  UNL1        0.0172
     11 C         140.8582  138.6456  162.7453 C.ar    1  UNL1        0.0598
     12 N         139.4756  138.8252  163.2987 N.ar    1  UNL1       -0.3284
     13 C         138.1955  138.7224  162.5236 C.3     1  UNL1        0.1301
     14 C         141.4861  139.4067  166.5254 C.2     1  UNL1        0.2504
     15 O         142.9443  139.4128  166.8772 O.2     1  UNL1       -0.2699
     16 C         140.8882  139.9505  168.9946 C.3     1  UNL1        0.1371
     17 C         143.0443  142.3915  168.7885 C.3     1  UNL1        0.0326
     18 C         141.7143  142.4459  169.4799 C.3     1  UNL1        0.1424
     19 N         141.1418  143.6319  170.1981 N.2     1  UNL1       -0.2463
     20 C         139.7969  143.2429  170.7366 C.2     1  UNL1        0.1939
     21 N         139.5382  141.8165  170.3514 N.2     1  UNL1       -0.2294
     22 C         140.7233  141.3239  169.5747 C.2     1  UNL1        0.0807
@<TRIPOS>BOND
     1    17    18    1
     2    18    19    1
     3    19    20    2
     4    20    21    1
     5    21    22    2
     6    22    16    1
     7    16     1    1
     8     1     2    1
     9     2     3    1
    10     3     4    1
    11     4     5   ar
    12     5     6   ar
    13     6     7   ar
    14     7     8   ar
    15     8     9   ar
    16     9    10   ar
    17    10    11   ar
    18    11    12   ar
    19    12    13    1
    20     5    14    1
    21    14    15    2
    22    22    18    1
    23    14     1   am
    24    12     4   ar
    25    11     6   ar
@<TRIPOS>MOLECULE
*****
 22 25 0 0 0
SMALL
GASTEIGER

@<TRIPOS>ATOM
      1 N         140.6147  140.3547  167.0317 N.am    1  UNL1       -0.2702
      2 C         139.4028  139.6090  166.5572 C.3     1  UNL1        0.1003
      3 C         138.6316  140.1084  165.3715 C.3     1  UNL1        0.0654
      4 C         139.0722  141.3534  164.6604 C.ar    1  UNL1        0.0432
      5 C         140.2841  142.0992  165.1350 C.ar    1  UNL1        0.0666
      6 C         140.4771  143.2875  164.2401 C.ar    1  UNL1        0.0212
      7 C         141.5066  144.3783  164.2283 C.ar    1  UNL1        0.0016
      8 C         141.4434  145.4578  163.1888 C.ar    1  UNL1        0.0001
      9 C         140.3508  145.4465  162.1612 C.ar    1  UNL1        0.0015
     10 C         139.3213  144.3557  162.1730 C.ar    1  UNL1        0.0172
     11 C         139.3845  143.2761  163.2125 C.ar    1  UNL1        0.0598
     12 N         138.5162  142.0809  163.4722 N.ar    1  UNL1       -0.3284
     13 C         137.3047  141.6829  162.6825 C.3     1  UNL1        0.1301
     14 C         141.0553  141.5998  166.3206 C.2     1  UNL1        0.2504
     15 O         142.2673  142.3455  166.7953 O.2     1  UNL1       -0.2699
     16 C         141.3859  139.8554  168.2175 C.3     1  UNL1        0.1371
     17 C         138.7516  140.3186  170.0870 C.3     1  UNL1        0.0326
     18 C         140.1344  140.8257  170.3709 C.3     1  UNL1        0.1424
     19 N         140.5491  141.6347  171.5640 N.2     1  UNL1       -0.2463
     20 C         142.0163  141.9218  171.4420 C.2     1  UNL1        0.1939
     21 N         142.5084  141.2902  170.1736 N.2     1  UNL1       -0.2294
     22 C         141.3452  140.6128  169.5116 C.2     1  UNL1        0.0807
@<TRIPOS>BOND
     1    17    18    1
     2    18    19    1
     3    19    20    2
     4    20    21    1
     5    21    22    2
     6    22    16    1
     7    16     1    1
     8     1     2    1
     9     2     3    1
    10     3     4    1
    11     4     5   ar
    12     5     6   ar
    13     6     7   ar
    14     7     8   ar
    15     8     9   ar
    16     9    10   ar
    17    10    11   ar
    18    11    12   ar
    19    12    13    1
    20     5    14    1
    21    14    15    2
    22    22    18    1
    23    14     1   am
    24    12     4   ar
    25    11     6   ar
@<TRIPOS>MOLECULE
*****
 22 25 0 0 0
SMALL
GASTEIGER

@<TRIPOS>ATOM
      1 N         141.5926  139.6063  167.7724 N.am    1  UNL1       -0.2702
      2 C         142.9845  139.2203  167.3680 C.3     1  UNL1        0.1003
      3 C         143.2904  138.9131  165.9320 C.3     1  UNL1        0.0654
      4 C         142.2043  138.9919  164.9004 C.ar    1  UNL1        0.0432
      5 C         140.8123  139.3779  165.3048 C.ar    1  UNL1        0.0666
      6 C         139.9537  139.3717  164.0748 C.ar    1  UNL1        0.0212
      7 C         138.4989  139.6707  163.8648 C.ar    1  UNL1        0.0016
      8 C         137.9055  139.5798  162.4903 C.ar    1  UNL1        0.0001
      9 C         138.7668  139.1901  161.3257 C.ar    1  UNL1        0.0015
     10 C         140.2216  138.8911  161.5357 C.ar    1  UNL1        0.0172
     11 C         140.8150  138.9819  162.9103 C.ar    1  UNL1        0.0598
     12 N         142.2059  138.7472  163.4205 N.ar    1  UNL1       -0.3284
     13 C         143.3905  138.3393  162.5957 C.3     1  UNL1        0.1301
     14 C         140.5065  139.6851  166.7408 C.2     1  UNL1        0.2504
     15 O         139.1145  140.0711  167.1452 O.2     1  UNL1       -0.2699
     16 C         141.2867  139.9135  169.2084 C.3     1  UNL1        0.1371
     17 C         143.6203  142.1681  169.5562 C.3     1  UNL1        0.0326
     18 C         142.1549  142.3705  169.8041 C.3     1  UNL1        0.1424
     19 N         141.5048  143.6447  170.2554 N.2     1  UNL1       -0.2463
     20 C         140.0303  143.3959  170.3745 C.2     1  UNL1        0.1939
     21 N         139.7692  141.9679  169.9968 N.2     1  UNL1       -0.2294
     22 C         141.0823  141.3342  169.6443 C.2     1  UNL1        0.0807
@<TRIPOS>BOND
     1    17    18    1
     2    18    19    1
     3    19    20    2
     4    20    21    1
     5    21    22    2
     6    22    16    1
     7    16     1    1
     8     1     2    1
     9     2     3    1
    10     3     4    1
    11     4     5   ar
    12     5     6   ar
    13     6     7   ar
    14     7     8   ar
    15     8     9   ar
    16     9    10   ar
    17    10    11   ar
    18    11    12   ar
    19    12    13    1
    20     5    14    1
    21    14    15    2
    22    22    18    1
    23    14     1   am
    24    12     4   ar
    25    11     6   ar
@<TRIPOS>MOLECULE
*****
 22 25 0 0 0
SMALL
GASTEIGER

@<TRIPOS>ATOM
      1 N         143.5242  138.5399  162.7167 N.am    1  UNL1       -0.2702
      2 C         144.4354  139.4948  163.4293 C.3     1  UNL1        0.1003
      3 C         143.9879  140.1500  164.7022 C.3     1  UNL1        0.0654
      4 C         142.6291  139.8504  165.2625 C.ar    1  UNL1        0.0432
      5 C         141.7178  138.8955  164.5499 C.ar    1  UNL1        0.0666
      6 C         140.4444  138.7958  165.3363 C.ar    1  UNL1        0.0212
      7 C         139.1878  138.0069  165.1158 C.ar    1  UNL1        0.0016
      8 C         138.0554  138.1114  166.0939 C.ar    1  UNL1        0.0001
      9 C         138.1796  139.0046  167.2925 C.ar    1  UNL1        0.0015
     10 C         139.4362  139.7934  167.5130 C.ar    1  UNL1        0.0172
     11 C         140.5686  139.6890  166.5349 C.ar    1  UNL1        0.0598
     12 N         141.9188  140.3408  166.4893 N.ar    1  UNL1       -0.3284
     13 C         142.4632  141.3124  167.4941 C.3     1  UNL1        0.1301
     14 C         142.1654  138.2403  163.2770 C.2     1  UNL1        0.2504
     15 O         141.2541  137.2853  162.5644 O.2     1  UNL1       -0.2699
     16 C         143.9717  137.8845  161.4438 C.3     1  UNL1        0.1371
     17 C         143.8891  140.9263  160.2647 C.3     1  UNL1        0.0326
     18 C         143.3379  139.7045  159.5914 C.3     1  UNL1        0.1424
     19 N         142.6519  139.6663  158.2581 N.2     1  UNL1       -0.2463
     20 C         142.2659  138.2445  157.9759 C.2     1  UNL1        0.1939
     21 N         142.7133  137.4040  159.1350 N.2     1  UNL1       -0.2294
     22 C         143.3758  138.3064  160.1334 C.2     1  UNL1        0.0807
@<TRIPOS>BOND
     1    17    18    1
     2    18    19    1
     3    19    20    2
     4    20    21    1
     5    21    22    2
     6    22    16    1
     7    16     1    1
     8     1     2    1
     9     2     3    1
    10     3     4    1
    11     4     5   ar
    12     5     6   ar
    13     6     7   ar
    14     7     8   ar
    15     8     9   ar
    16     9    10   ar
    17    10    11   ar
    18    11    12   ar
    19    12    13    1
    20     5    14    1
    21    14    15    2
    22    22    18    1
    23    14     1   am
    24    12     4   ar
    25    11     6   ar
@<TRIPOS>MOLECULE
*****
 22 25 0 0 0
SMALL
GASTEIGER

@<TRIPOS>ATOM
      1 N         142.8312  140.6221  167.1736 N.am    1  UNL1       -0.2702
      2 C         143.0788  142.0994  167.0948 C.3     1  UNL1        0.1003
      3 C         143.4332  142.7315  165.7815 C.3     1  UNL1        0.0654
      4 C         143.5398  141.8862  164.5469 C.ar    1  UNL1        0.0432
      5 C         143.2922  140.4089  164.6256 C.ar    1  UNL1        0.0666
      6 C         143.4687  139.8353  163.2509 C.ar    1  UNL1        0.0212
      7 C         143.3507  138.4357  162.7246 C.ar    1  UNL1        0.0016
      8 C         143.5895  138.1589  161.2699 C.ar    1  UNL1        0.0001
      9 C         143.9463  139.2817  160.3415 C.ar    1  UNL1        0.0015
     10 C         144.0643  140.6814  160.8678 C.ar    1  UNL1        0.0172
     11 C         143.8255  140.9582  162.3225 C.ar    1  UNL1        0.0598
     12 N         143.8695  142.2257  163.1235 N.ar    1  UNL1       -0.3284
     13 C         144.1872  143.5926  162.5939 C.3     1  UNL1        0.1301
     14 C         142.9379  139.7769  165.9390 C.2     1  UNL1        0.2504
     15 O         142.6902  138.2995  166.0178 O.2     1  UNL1       -0.2699
     16 C         142.4769  139.9900  168.4870 C.3     1  UNL1        0.1371
     17 C         142.2008  142.3666  170.7063 C.3     1  UNL1        0.0326
     18 C         141.0911  141.4839  170.2172 C.3     1  UNL1        0.1424
     19 N         139.6597  141.5385  170.6622 N.2     1  UNL1       -0.2463
     20 C         138.9020  140.4798  169.9172 C.2     1  UNL1        0.1939
     21 N         139.8650  139.7709  169.0117 N.2     1  UNL1       -0.2294
     22 C         141.2180  140.3915  169.1971 C.2     1  UNL1        0.0807
@<TRIPOS>BOND
     1    17    18    1
     2    18    19    1
     3    19    20    2
     4    20    21    1
     5    21    22    2
     6    22    16    1
     7    16     1    1
     8     1     2    1
     9     2     3    1
    10     3     4    1
    11     4     5   ar
    12     5     6   ar
    13     6     7   ar
    14     7     8   ar
    15     8     9   ar
    16     9    10   ar
    17    10    11   ar
    18    11    12   ar
    19    12    13    1
    20     5    14    1
    21    14    15    2
    22    22    18    1
    23    14     1   am
    24    12     4   ar
    25    11     6   ar
@<TRIPOS>MOLECULE
*****
 22 25 0 0 0
SMALL
GASTEIGER

@<TRIPOS>ATOM
      1 N         142.6240  140.1721  164.7745 N.am    1  UNL1       -0.2702
      2 C         143.2876  138.9129  165.2477 C.3     1  UNL1        0.1003
      3 C         143.2851  138.5667  166.7072 C.3     1  UNL1        0.0654
      4 C         142.6190  139.4798  167.6934 C.ar    1  UNL1        0.0432
      5 C         141.9554  140.7390  167.2202 C.ar    1  UNL1        0.0666
      6 C         141.3833  141.4394  168.4169 C.ar    1  UNL1        0.0212
      7 C         140.6201  142.7228  168.5589 C.ar    1  UNL1        0.0016
      8 C         140.1668  143.1799  169.9137 C.ar    1  UNL1        0.0001
      9 C         140.4768  142.3535  171.1266 C.ar    1  UNL1        0.0015
     10 C         141.2400  141.0701  170.9846 C.ar    1  UNL1        0.0172
     11 C         141.6932  140.6130  169.6298 C.ar    1  UNL1        0.0598
     12 N         142.4570  139.4019  169.1826 N.ar    1  UNL1       -0.3284
     13 C         142.9688  138.3054  170.0691 C.3     1  UNL1        0.1301
     14 C         141.9579  141.0852  165.7607 C.2     1  UNL1        0.2504
     15 O         141.2943  142.3445  165.2874 O.2     1  UNL1       -0.2699
     16 C         142.6265  140.5184  163.3149 C.3     1  UNL1        0.1371
     17 C         145.6892  141.5950  163.6471 C.3     1  UNL1        0.0326
     18 C         144.5549  142.3448  163.0136 C.3     1  UNL1        0.1424
     19 N         144.6292  143.7210  162.4216 N.2     1  UNL1       -0.2463
     20 C         143.2673  144.0766  161.9030 C.2     1  UNL1        0.1939
     21 N         142.3514  142.9202  162.1745 N.2     1  UNL1       -0.2294
     22 C         143.1472  141.8498  162.8609 C.2     1  UNL1        0.0807
@<TRIPOS>BOND
     1    17    18    1
     2    18    19    1
     3    19    20    2
     4    20    21    1
     5    21    22    2
     6    22    16    1
     7    16     1    1
     8     1     2    1
     9     2     3    1
    10     3     4    1
    11     4     5   ar
    12     5     6   ar
    13     6     7   ar
    14     7     8   ar
    15     8     9   ar
    16     9    10   ar
    17    10    11   ar
    18    11    12   ar
    19    12    13    1
    20     5    14    1
    21    14    15    2
    22    22    18    1
    23    14     1   am
    24    12     4   ar
    25    11     6   ar
@<TRIPOS>MOLECULE
*****
 22 25 0 0 0
SMALL
GASTEIGER

@<TRIPOS>ATOM
      1 N         141.2368  141.4442  166.6984 N.am    1  UNL1       -0.2702
      2 C         140.8341  142.8773  166.5139 C.3     1  UNL1        0.1003
      3 C         139.9181  143.2601  165.3895 C.3     1  UNL1        0.0654
      4 C         139.4048  142.2098  164.4496 C.ar    1  UNL1        0.0432
      5 C         139.8074  140.7767  164.6341 C.ar    1  UNL1        0.0666
      6 C         139.1470  139.9674  163.5576 C.ar    1  UNL1        0.0212
      7 C         139.1792  138.5014  163.2414 C.ar    1  UNL1        0.0016
      8 C         138.4006  137.9684  162.0754 C.ar    1  UNL1        0.0001
      9 C         137.5898  138.9013  161.2256 C.ar    1  UNL1        0.0015
     10 C         137.5575  140.3673  161.5418 C.ar    1  UNL1        0.0172
     11 C         138.3362  140.9003  162.7078 C.ar    1  UNL1        0.0598
     12 N         138.4955  142.2862  163.2590 N.ar    1  UNL1       -0.3284
     13 C         137.8575  143.5300  162.7152 C.3     1  UNL1        0.1301
     14 C         140.7234  140.3939  165.7585 C.2     1  UNL1        0.2504
     15 O         141.1261  138.9607  165.9430 O.2     1  UNL1       -0.2699
     16 C         142.1528  141.0613  167.8229 C.3     1  UNL1        0.1371
     17 C         144.1348  142.5355  169.9555 C.3     1  UNL1        0.0326
     18 C         142.7181  142.1155  170.2134 C.3     1  UNL1        0.1424
     19 N         141.9637  142.2993  171.4967 N.2     1  UNL1       -0.2463
     20 C         140.5864  141.7352  171.3096 C.2     1  UNL1        0.1939
     21 N         140.4896  141.2028  169.9106 N.2     1  UNL1       -0.2294
     22 C         141.8072  141.4378  169.2331 C.2     1  UNL1        0.0807
@<TRIPOS>BOND
     1    17    18    1
     2    18    19    1
     3    19    20    2
     4    20    21    1
     5    21    22    2
     6    22    16    1
     7    16     1    1
     8     1     2    1
     9     2     3    1
    10     3     4    1
    11     4     5   ar
    12     5     6   ar
    13     6     7   ar
    14     7     8   ar
    15     8     9   ar
    16     9    10   ar
    17    10    11   ar
    18    11    12   ar
    19    12    13    1
    20     5    14    1
    21    14    15    2
    22    22    18    1
    23    14     1   am
    24    12     4   ar
    25    11     6   ar
@<TRIPOS>MOLECULE
*****
 22 25 0 0 0
SMALL
GASTEIGER

@<TRIPOS>ATOM
      1 N         140.5885  141.8335  163.3391 N.am    1  UNL1       -0.2702
      2 C         139.6463  140.7228  162.9804 C.3     1  UNL1        0.1003
      3 C         138.9818  139.9242  164.0623 C.3     1  UNL1        0.0654
      4 C         139.2594  140.2362  165.5030 C.ar    1  UNL1        0.0432
      5 C         140.2016  141.3469  165.8618 C.ar    1  UNL1        0.0666
      6 C         140.2803  141.4230  167.3578 C.ar    1  UNL1        0.0212
      7 C         141.0501  142.3234  168.2778 C.ar    1  UNL1        0.0016
      8 C         140.9264  142.1601  169.7637 C.ar    1  UNL1        0.0001
      9 C         140.0329  141.0964  170.3296 C.ar    1  UNL1        0.0015
     10 C         139.2631  140.1960  169.4095 C.ar    1  UNL1        0.0172
     11 C         139.3868  140.3593  167.9236 C.ar    1  UNL1        0.0598
     12 N         138.7559  139.6259  166.7773 N.ar    1  UNL1       -0.3284
     13 C         137.7908  138.4827  166.8862 C.3     1  UNL1        0.1301
     14 C         140.8661  142.1455  164.7798 C.2     1  UNL1        0.2504
     15 O         141.8083  143.2563  165.1385 O.2     1  UNL1       -0.2699
     16 C         141.2530  142.6322  162.2572 C.3     1  UNL1        0.1371
     17 C         140.0115  143.2924  159.3123 C.3     1  UNL1        0.0326
     18 C         140.0932  144.2447  160.4683 C.3     1  UNL1        0.1424
     19 N         139.6187  145.6676  160.4738 N.2     1  UNL1       -0.2463
     20 C         139.8960  146.2435  161.8308 C.2     1  UNL1        0.1939
     21 N         140.5420  145.1765  162.6640 N.2     1  UNL1       -0.2294
     22 C         140.6639  143.9412  161.8219 C.2     1  UNL1        0.0807
@<TRIPOS>BOND
     1    17    18    1
     2    18    19    1
     3    19    20    2
     4    20    21    1
     5    21    22    2
     6    22    16    1
     7    16     1    1
     8     1     2    1
     9     2     3    1
    10     3     4    1
    11     4     5   ar
    12     5     6   ar
    13     6     7   ar
    14     7     8   ar
    15     8     9   ar
    16     9    10   ar
    17    10    11   ar
    18    11    12   ar
    19    12    13    1
    20     5    14    1
    21    14    15    2
    22    22    18    1
    23    14     1   am
    24    12     4   ar
    25    11     6   ar
@<TRIPOS>MOLECULE
*****
 22 25 0 0 0
SMALL
GASTEIGER

@<TRIPOS>ATOM
      1 N         143.0377  140.0305  164.8024 N.am    1  UNL1       -0.2702
      2 C         143.5913  138.7578  165.3714 C.3     1  UNL1        0.1003
      3 C         143.4359  138.4597  166.8332 C.3     1  UNL1        0.0654
      4 C         142.7268  139.4344  167.7261 C.ar    1  UNL1        0.0432
      5 C         142.1732  140.7071  167.1572 C.ar    1  UNL1        0.0666
      6 C         141.5274  141.4720  168.2743 C.ar    1  UNL1        0.0212
      7 C         140.8187  142.7935  168.3075 C.ar    1  UNL1        0.0016
      8 C         140.2645  143.3150  169.6001 C.ar    1  UNL1        0.0001
      9 C         140.4190  142.5150  170.8595 C.ar    1  UNL1        0.0015
     10 C         141.1277  141.1934  170.8263 C.ar    1  UNL1        0.0172
     11 C         141.6820  140.6719  169.5337 C.ar    1  UNL1        0.0598
     12 N         142.4232  139.4127  169.1949 N.ar    1  UNL1       -0.3284
     13 C         142.7955  138.3230  170.1561 C.3     1  UNL1        0.1301
     14 C         142.3286  141.0052  165.6954 C.2     1  UNL1        0.2504
     15 O         141.7750  142.2779  165.1264 O.2     1  UNL1       -0.2699
     16 C         143.1931  140.3286  163.3405 C.3     1  UNL1        0.1371
     17 C         140.3477  138.7962  162.8873 C.3     1  UNL1        0.0326
     18 C         141.6114  138.5557  162.1157 C.3     1  UNL1        0.1424
     19 N         141.7891  137.5686  161.0003 N.2     1  UNL1       -0.2463
     20 C         143.2067  137.6629  160.5194 C.2     1  UNL1        0.1939
     21 N         143.9053  138.7082  161.3374 N.2     1  UNL1       -0.2294
     22 C         142.9192  139.2600  162.3241 C.2     1  UNL1        0.0807
@<TRIPOS>BOND
     1    17    18    1
     2    18    19    1
     3    19    20    2
     4    20    21    1
     5    21    22    2
     6    22    16    1
     7    16     1    1
     8     1     2    1
     9     2     3    1
    10     3     4    1
    11     4     5   ar
    12     5     6   ar
    13     6     7   ar
    14     7     8   ar
    15     8     9   ar
    16     9    10   ar
    17    10    11   ar
    18    11    12   ar
    19    12    13    1
    20     5    14    1
    21    14    15    2
    22    22    18    1
    23    14     1   am
    24    12     4   ar
    25    11     6   ar
