@<TRIPOS>MOLECULE
*****
 38 41 0 0 0
SMALL
GASTEIGER

@<TRIPOS>ATOM
      1 O         139.3242  141.2863  157.1856 O.2     1  UNL1       -0.2733
      2 C         137.8671  140.9318  157.2212 C.2     1  UNL1        0.2426
      3 N         137.2805  140.2925  158.4448 N.am    1  UNL1       -0.3009
      4 H         136.3241  140.0598  158.4681 H       1  UNL1        0.1496
      5 C         138.1509  140.0078  159.6328 C.3     1  UNL1        0.1158
      6 C         137.9924  140.5964  161.0033 C.3     1  UNL1        0.0944
      7 N         139.0762  140.0368  161.8763 N.3     1  UNL1       -0.2704
      8 C         139.9046  139.1023  161.0454 C.3     1  UNL1        0.1034
      9 C         139.3327  139.0843  159.6588 C.3     1  UNL1        0.1456
     10 O         139.8515  138.2835  158.5013 O.3     1  UNL1       -0.3813
     11 H         139.3026  138.4521  157.7196 H       1  UNL1        0.2105
     12 C         139.2935  140.3557  163.3259 C.3     1  UNL1        0.0576
     13 C         140.3054  141.3893  163.7228 C.3     1  UNL1        0.0163
     14 C         140.5228  141.7083  165.1723 C.3     1  UNL1        0.0057
     15 C         139.7280  140.9936  166.2248 C.3     1  UNL1        0.0224
     16 C         138.7161  139.9600  165.8279 C.3     1  UNL1        0.0057
     17 C         138.4988  139.6411  164.3784 C.3     1  UNL1        0.0163
     18 C         139.9453  141.3125  167.6744 C.ar    1  UNL1       -0.0225
     19 C         140.5425  142.6302  168.0711 C.ar    1  UNL1       -0.0043
     20 C         140.7598  142.9491  169.5206 C.ar    1  UNL1       -0.0003
     21 C         140.3800  141.9504  170.5734 C.ar    1  UNL1       -0.0000
     22 C         139.7828  140.6328  170.1767 C.ar    1  UNL1       -0.0003
     23 C         139.5655  140.3138  168.7271 C.ar    1  UNL1       -0.0043
     24 C         136.9967  141.2165  156.0333 C.3     1  UNL1        0.1759
     25 N         135.5114  141.3390  156.2039 N.am    1  UNL1       -0.2931
     26 C         134.6182  140.1874  155.8489 C.2     1  UNL1        0.2462
     27 O         135.2102  138.9133  155.3233 O.2     1  UNL1       -0.2701
     28 H         135.1228  142.1752  156.5488 H       1  UNL1        0.1502
     29 C         133.1329  140.3098  156.0195 C.ar    1  UNL1        0.0533
     30 C         132.3719  141.3450  155.2455 C.ar    1  UNL1        0.0045
     31 C         130.8867  141.4674  155.4161 C.ar    1  UNL1        0.0001
     32 C         130.1625  140.5547  156.3608 C.ar    1  UNL1        0.0039
     33 C         130.9236  139.5195  157.1348 C.ar    1  UNL1        0.0716
     34 C         132.4087  139.3971  156.9642 C.ar    1  UNL1        0.0084
     35 C         130.1994  138.6067  158.0795 C.3     1  UNL1        0.4186
     36 F         129.4752  137.6939  159.0242 F       1  UNL1       -0.1659
     37 F         131.5106  138.1701  158.6628 F       1  UNL1       -0.1659
     38 F         128.8882  139.0433  157.4963 F       1  UNL1       -0.1659
@<TRIPOS>BOND
     1     1     2    2
     2     2    24    1
     3    24    25    1
     4    25    26   am
     5    26    27    2
     6    26    29    1
     7    29    30   ar
     8    30    31   ar
     9    31    32   ar
    10    32    33   ar
    11    33    35    1
    12    35    36    1
    13    35    37    1
    14    35    38    1
    15    33    34   ar
    16     2     3   am
    17     5     3    1
    18     5     6    1
    19     6     7    1
    20    12     7    1
    21    12    13    1
    22    13    14    1
    23    14    15    1
    24    15    18    1
    25    18    19   ar
    26    19    20   ar
    27    20    21   ar
    28    21    22   ar
    29    22    23   ar
    30    15    16    1
    31    16    17    1
    32     7     8    1
    33     8     9    1
    34     9    10    1
    35    34    29   ar
    36     9     5    1
    37    17    12    1
    38    23    18   ar
    39    25    28    1
    40     3     4    1
    41    10    11    1
@<TRIPOS>MOLECULE
*****
 38 41 0 0 0
SMALL
GASTEIGER

@<TRIPOS>ATOM
      1 O         139.3605  144.2471  158.5536 O.2     1  UNL1       -0.2733
      2 C         140.6405  144.9672  158.2483 C.2     1  UNL1        0.2426
      3 N         141.4960  145.4832  159.3671 N.am    1  UNL1       -0.3009
      4 H         142.3361  145.9557  159.1666 H       1  UNL1        0.1496
      5 C         141.0716  145.2792  160.7913 C.3     1  UNL1        0.1158
      6 C         141.7221  144.3598  161.7821 C.3     1  UNL1        0.0944
      7 N         140.9747  144.4712  163.0778 N.3     1  UNL1       -0.2704
      8 C         139.8623  145.4594  162.8879 C.3     1  UNL1        0.1034
      9 C         139.9223  145.9588  161.4747 C.3     1  UNL1        0.1456
     10 O         138.9955  146.9617  160.8539 O.3     1  UNL1       -0.3813
     11 H         139.2514  147.1100  159.9301 H       1  UNL1        0.2105
     12 C         141.2852  143.7253  164.3417 C.3     1  UNL1        0.0576
     13 C         140.2015  143.4687  165.3465 C.3     1  UNL1        0.0163
     14 C         140.5119  142.7229  166.6104 C.3     1  UNL1        0.0057
     15 C         141.9061  142.2335  166.8693 C.3     1  UNL1        0.0224
     16 C         142.9897  142.4900  165.8644 C.3     1  UNL1        0.0057
     17 C         142.6792  143.2359  164.6006 C.3     1  UNL1        0.0163
     18 C         142.2165  141.4876  168.1331 C.ar    1  UNL1       -0.0225
     19 C         141.5470  140.1747  168.4129 C.ar    1  UNL1       -0.0043
     20 C         141.8574  139.4289  169.6768 C.ar    1  UNL1       -0.0003
     21 C         142.8374  139.9957  170.6608 C.ar    1  UNL1       -0.0000
     22 C         143.5070  141.3086  170.3810 C.ar    1  UNL1       -0.0003
     23 C         143.1965  142.0545  169.1171 C.ar    1  UNL1       -0.0043
     24 C         141.0649  145.1712  156.8242 C.3     1  UNL1        0.1759
     25 N         140.9131  146.5182  156.1819 N.am    1  UNL1       -0.2931
     26 C         140.2600  146.6386  154.8370 C.2     1  UNL1        0.2462
     27 O         139.7587  145.4119  154.1342 O.2     1  UNL1       -0.2701
     28 H         141.2421  147.3234  156.6432 H       1  UNL1        0.1502
     29 C         140.1082  147.9857  154.1947 C.ar    1  UNL1        0.0533
     30 C         140.5875  148.2053  152.7905 C.ar    1  UNL1        0.0045
     31 C         140.4357  149.5524  152.1483 C.ar    1  UNL1        0.0001
     32 C         139.8046  150.6797  152.9104 C.ar    1  UNL1        0.0039
     33 C         139.3254  150.4601  154.3146 C.ar    1  UNL1        0.0716
     34 C         139.4772  149.1130  154.9568 C.ar    1  UNL1        0.0084
     35 C         138.6943  151.5874  155.0767 C.3     1  UNL1        0.4186
     36 F         138.0632  152.7148  155.8388 F       1  UNL1       -0.1659
     37 F         139.4472  152.5765  154.2371 F       1  UNL1       -0.1659
     38 F         137.9413  150.5984  155.9163 F       1  UNL1       -0.1659
@<TRIPOS>BOND
     1     1     2    2
     2     2    24    1
     3    24    25    1
     4    25    26   am
     5    26    27    2
     6    26    29    1
     7    29    30   ar
     8    30    31   ar
     9    31    32   ar
    10    32    33   ar
    11    33    35    1
    12    35    36    1
    13    35    37    1
    14    35    38    1
    15    33    34   ar
    16     2     3   am
    17     5     3    1
    18     5     6    1
    19     6     7    1
    20    12     7    1
    21    12    13    1
    22    13    14    1
    23    14    15    1
    24    15    18    1
    25    18    19   ar
    26    19    20   ar
    27    20    21   ar
    28    21    22   ar
    29    22    23   ar
    30    15    16    1
    31    16    17    1
    32     7     8    1
    33     8     9    1
    34     9    10    1
    35    34    29   ar
    36     9     5    1
    37    17    12    1
    38    23    18   ar
    39    25    28    1
    40     3     4    1
    41    10    11    1
@<TRIPOS>MOLECULE
*****
 38 41 0 0 0
SMALL
GASTEIGER

@<TRIPOS>ATOM
      1 O         138.7721  140.4948  158.0583 O.2     1  UNL1       -0.2733
      2 C         139.3756  139.1217  158.0806 C.2     1  UNL1        0.2426
      3 N         139.6176  138.4300  159.3893 N.am    1  UNL1       -0.3009
      4 H         140.0137  137.5288  159.4039 H       1  UNL1        0.1496
      5 C         139.2562  139.1114  160.6759 C.3     1  UNL1        0.1158
      6 C         140.2051  139.4684  161.7814 C.3     1  UNL1        0.0944
      7 N         139.4178  140.1331  162.8715 N.3     1  UNL1       -0.2704
      8 C         137.9822  140.1868  162.4398 C.3     1  UNL1        0.1034
      9 C         137.8824  139.5554  161.0828 C.3     1  UNL1        0.1456
     10 O         136.6288  139.3960  160.2746 O.3     1  UNL1       -0.3813
     11 H         136.8387  138.9564  159.4357 H       1  UNL1        0.2105
     12 C         139.9692  140.6527  164.1661 C.3     1  UNL1        0.0576
     13 C         140.9706  139.8419  164.9339 C.3     1  UNL1        0.0163
     14 C         141.5221  140.3615  166.2285 C.3     1  UNL1        0.0057
     15 C         141.0720  141.6920  166.7552 C.3     1  UNL1        0.0224
     16 C         140.0706  142.5028  165.9873 C.3     1  UNL1        0.0057
     17 C         139.5192  141.9831  164.6927 C.3     1  UNL1        0.0163
     18 C         141.6234  142.2116  168.0498 C.ar    1  UNL1       -0.0225
     19 C         143.0326  141.8874  168.4488 C.ar    1  UNL1       -0.0043
     20 C         143.5840  142.4070  169.7434 C.ar    1  UNL1       -0.0003
     21 C         142.7262  143.2509  170.6390 C.ar    1  UNL1       -0.0000
     22 C         141.3170  143.5752  170.2400 C.ar    1  UNL1       -0.0003
     23 C         140.7656  143.0555  168.9454 C.ar    1  UNL1       -0.0043
     24 C         139.7370  138.4403  156.7941 C.3     1  UNL1        0.1759
     25 N         140.2360  137.0258  156.8090 N.am    1  UNL1       -0.2931
     26 C         141.3468  136.6127  155.8895 C.2     1  UNL1        0.2462
     27 O         141.9586  137.6140  154.9551 O.2     1  UNL1       -0.2701
     28 H         139.8345  136.3686  157.4223 H       1  UNL1        0.1502
     29 C         141.8458  135.1981  155.9044 C.ar    1  UNL1        0.0533
     30 C         141.1902  134.1624  155.0400 C.ar    1  UNL1        0.0045
     31 C         141.6893  132.7480  155.0549 C.ar    1  UNL1        0.0001
     32 C         142.8440  132.3693  155.9343 C.ar    1  UNL1        0.0039
     33 C         143.4996  133.4050  156.7988 C.ar    1  UNL1        0.0716
     34 C         143.0005  134.8195  156.7839 C.ar    1  UNL1        0.0084
     35 C         144.6542  133.0263  157.6782 C.3     1  UNL1        0.4186
     36 F         145.8089  132.6476  158.5576 F       1  UNL1       -0.1659
     37 F         144.1088  133.8985  158.7699 F       1  UNL1       -0.1659
     38 F         145.1997  132.1542  156.5865 F       1  UNL1       -0.1659
@<TRIPOS>BOND
     1     1     2    2
     2     2    24    1
     3    24    25    1
     4    25    26   am
     5    26    27    2
     6    26    29    1
     7    29    30   ar
     8    30    31   ar
     9    31    32   ar
    10    32    33   ar
    11    33    35    1
    12    35    36    1
    13    35    37    1
    14    35    38    1
    15    33    34   ar
    16     2     3   am
    17     5     3    1
    18     5     6    1
    19     6     7    1
    20    12     7    1
    21    12    13    1
    22    13    14    1
    23    14    15    1
    24    15    18    1
    25    18    19   ar
    26    19    20   ar
    27    20    21   ar
    28    21    22   ar
    29    22    23   ar
    30    15    16    1
    31    16    17    1
    32     7     8    1
    33     8     9    1
    34     9    10    1
    35    34    29   ar
    36     9     5    1
    37    17    12    1
    38    23    18   ar
    39    25    28    1
    40     3     4    1
    41    10    11    1
@<TRIPOS>MOLECULE
*****
 38 41 0 0 0
SMALL
GASTEIGER

@<TRIPOS>ATOM
      1 O         140.6059  139.2596  157.4702 O.2     1  UNL1       -0.2733
      2 C         141.3958  138.0190  157.1753 C.2     1  UNL1        0.2426
      3 N         142.4753  137.5755  158.1175 N.am    1  UNL1       -0.3009
      4 H         142.9937  136.7612  157.9239 H       1  UNL1        0.1496
      5 C         142.7651  138.3727  159.3547 C.3     1  UNL1        0.1158
      6 C         142.1790  138.1340  160.7147 C.3     1  UNL1        0.0944
      7 N         142.7434  139.1623  161.6496 N.3     1  UNL1       -0.2704
      8 C         143.6784  140.0365  160.8674 C.3     1  UNL1        0.1034
      9 C         143.6917  139.5484  159.4491 C.3     1  UNL1        0.1456
     10 O         144.4914  140.1334  158.3228 O.3     1  UNL1       -0.3813
     11 H         144.3196  139.6326  157.5101 H       1  UNL1        0.2105
     12 C         142.4283  139.2934  163.1103 C.3     1  UNL1        0.0576
     13 C         141.2402  138.5830  163.6879 C.3     1  UNL1        0.0163
     14 C         140.9250  138.7140  165.1485 C.3     1  UNL1        0.0057
     15 C         141.7981  139.5556  166.0315 C.3     1  UNL1        0.0224
     16 C         142.9862  140.2659  165.4540 C.3     1  UNL1        0.0057
     17 C         143.3013  140.1348  163.9933 C.3     1  UNL1        0.0163
     18 C         141.4829  139.6867  167.4922 C.ar    1  UNL1       -0.0225
     19 C         142.5346  139.3795  168.5169 C.ar    1  UNL1       -0.0043
     20 C         142.2194  139.5106  169.9776 C.ar    1  UNL1       -0.0003
     21 C         140.8527  139.9488  170.4136 C.ar    1  UNL1       -0.0000
     22 C         139.8011  140.2560  169.3889 C.ar    1  UNL1       -0.0003
     23 C         140.1163  140.1249  167.9282 C.ar    1  UNL1       -0.0043
     24 C         141.1061  137.2218  155.9381 C.3     1  UNL1        0.1759
     25 N         141.1247  135.7228  155.9903 N.am    1  UNL1       -0.2931
     26 C         142.4316  134.9874  155.9577 C.2     1  UNL1        0.2462
     27 O         143.7200  135.7509  155.8730 O.2     1  UNL1       -0.2701
     28 H         140.2791  135.2216  156.0459 H       1  UNL1        0.1502
     29 C         142.4502  133.4883  156.0099 C.ar    1  UNL1        0.0533
     30 C         141.4991  132.6965  155.1623 C.ar    1  UNL1        0.0045
     31 C         141.5178  131.1976  155.2145 C.ar    1  UNL1        0.0001
     32 C         142.4875  130.4904  156.1143 C.ar    1  UNL1        0.0039
     33 C         143.4386  131.2823  156.9618 C.ar    1  UNL1        0.0716
     34 C         143.4200  132.7812  156.9096 C.ar    1  UNL1        0.0084
     35 C         144.4084  130.5751  157.8615 C.3     1  UNL1        0.4186
     36 F         145.3781  129.8680  158.7613 F       1  UNL1       -0.1659
     37 F         145.4585  131.5937  157.5303 F       1  UNL1       -0.1659
     38 F         143.3583  129.5565  158.1928 F       1  UNL1       -0.1659
@<TRIPOS>BOND
     1     1     2    2
     2     2    24    1
     3    24    25    1
     4    25    26   am
     5    26    27    2
     6    26    29    1
     7    29    30   ar
     8    30    31   ar
     9    31    32   ar
    10    32    33   ar
    11    33    35    1
    12    35    36    1
    13    35    37    1
    14    35    38    1
    15    33    34   ar
    16     2     3   am
    17     5     3    1
    18     5     6    1
    19     6     7    1
    20    12     7    1
    21    12    13    1
    22    13    14    1
    23    14    15    1
    24    15    18    1
    25    18    19   ar
    26    19    20   ar
    27    20    21   ar
    28    21    22   ar
    29    22    23   ar
    30    15    16    1
    31    16    17    1
    32     7     8    1
    33     8     9    1
    34     9    10    1
    35    34    29   ar
    36     9     5    1
    37    17    12    1
    38    23    18   ar
    39    25    28    1
    40     3     4    1
    41    10    11    1
@<TRIPOS>MOLECULE
*****
 38 41 0 0 0
SMALL
GASTEIGER

@<TRIPOS>ATOM
      1 O         142.3225  140.4260  158.0024 O.2     1  UNL1       -0.2733
      2 C         141.7123  139.1975  157.3953 C.2     1  UNL1        0.2426
      3 N         140.4469  138.6286  157.9653 N.am    1  UNL1       -0.3009
      4 H         140.0464  137.8223  157.5668 H       1  UNL1        0.1496
      5 C         139.7915  139.2882  159.1425 C.3     1  UNL1        0.1158
      6 C         140.3221  139.3171  160.5452 C.3     1  UNL1        0.0944
      7 N         139.3491  140.0814  161.3931 N.3     1  UNL1       -0.2704
      8 C         138.2171  140.5249  160.5144 C.3     1  UNL1        0.1034
      9 C         138.4906  140.0346  159.1235 C.3     1  UNL1        0.1456
     10 O         137.6166  140.2526  157.9240 O.3     1  UNL1       -0.3813
     11 H         138.0215  139.8335  157.1485 H       1  UNL1        0.2105
     12 C         139.4842  140.3543  162.8619 C.3     1  UNL1        0.0576
     13 C         140.7059  141.0488  163.3863 C.3     1  UNL1        0.0163
     14 C         140.8411  141.3218  164.8550 C.3     1  UNL1        0.0057
     15 C         139.7545  140.9002  165.7993 C.3     1  UNL1        0.0224
     16 C         138.5328  140.2057  165.2749 C.3     1  UNL1        0.0057
     17 C         138.3976  139.9328  163.8062 C.3     1  UNL1        0.0163
     18 C         139.8896  141.1731  167.2681 C.ar    1  UNL1       -0.0225
     19 C         139.5032  140.1211  168.2651 C.ar    1  UNL1       -0.0043
     20 C         139.6384  140.3940  169.7339 C.ar    1  UNL1       -0.0003
     21 C         140.1599  141.7189  170.2057 C.ar    1  UNL1       -0.0000
     22 C         140.5464  142.7709  169.2086 C.ar    1  UNL1       -0.0003
     23 C         140.4112  142.4980  167.7399 C.ar    1  UNL1       -0.0043
     24 C         142.3676  138.5379  156.2183 C.3     1  UNL1        0.1759
     25 N         142.7710  137.0952  156.2955 N.am    1  UNL1       -0.2931
     26 C         141.7711  136.0195  155.9904 C.2     1  UNL1        0.2462
     27 O         140.3678  136.3865  155.6081 O.2     1  UNL1       -0.2701
     28 H         143.6920  136.8543  156.5464 H       1  UNL1        0.1502
     29 C         142.1745  134.5768  156.0676 C.ar    1  UNL1        0.0533
     30 C         141.3682  133.5333  155.3529 C.ar    1  UNL1        0.0045
     31 C         141.7716  132.0907  155.4301 C.ar    1  UNL1        0.0001
     32 C         142.9813  131.6915  156.2221 C.ar    1  UNL1        0.0039
     33 C         143.7876  132.7350  156.9369 C.ar    1  UNL1        0.0716
     34 C         143.3842  134.1776  156.8596 C.ar    1  UNL1        0.0084
     35 C         144.9974  132.3358  157.7289 C.3     1  UNL1        0.4186
     36 F         146.2071  131.9367  158.5209 F       1  UNL1       -0.1659
     37 F         145.2217  131.1776  156.8025 F       1  UNL1       -0.1659
     38 F         144.7731  133.4941  158.6552 F       1  UNL1       -0.1659
@<TRIPOS>BOND
     1     1     2    2
     2     2    24    1
     3    24    25    1
     4    25    26   am
     5    26    27    2
     6    26    29    1
     7    29    30   ar
     8    30    31   ar
     9    31    32   ar
    10    32    33   ar
    11    33    35    1
    12    35    36    1
    13    35    37    1
    14    35    38    1
    15    33    34   ar
    16     2     3   am
    17     5     3    1
    18     5     6    1
    19     6     7    1
    20    12     7    1
    21    12    13    1
    22    13    14    1
    23    14    15    1
    24    15    18    1
    25    18    19   ar
    26    19    20   ar
    27    20    21   ar
    28    21    22   ar
    29    22    23   ar
    30    15    16    1
    31    16    17    1
    32     7     8    1
    33     8     9    1
    34     9    10    1
    35    34    29   ar
    36     9     5    1
    37    17    12    1
    38    23    18   ar
    39    25    28    1
    40     3     4    1
    41    10    11    1
@<TRIPOS>MOLECULE
*****
 38 41 0 0 0
SMALL
GASTEIGER

@<TRIPOS>ATOM
      1 O         144.0253  139.5160  158.6922 O.2     1  UNL1       -0.2733
      2 C         142.7948  138.7043  158.4149 C.2     1  UNL1        0.2426
      3 N         141.9596  138.1959  159.5524 N.am    1  UNL1       -0.3009
      4 H         141.1519  137.6632  159.3704 H       1  UNL1        0.1496
      5 C         142.3549  138.4992  160.9673 C.3     1  UNL1        0.1158
      6 C         141.5087  139.2003  161.9882 C.3     1  UNL1        0.0944
      7 N         142.2967  139.2890  163.2615 N.3     1  UNL1       -0.2704
      8 C         143.6300  138.6427  163.0275 C.3     1  UNL1        0.1034
      9 C         143.6659  138.1546  161.6096 C.3     1  UNL1        0.1456
     10 O         144.8118  137.4462  160.9497 O.3     1  UNL1       -0.3813
     11 H         144.5783  137.2394  160.0312 H       1  UNL1        0.2105
     12 C         141.8328  139.9142  164.5437 C.3     1  UNL1        0.0576
     13 C         142.3601  141.2561  164.9574 C.3     1  UNL1        0.0163
     14 C         141.8964  141.8814  166.2396 C.3     1  UNL1        0.0057
     15 C         140.9052  141.1646  167.1080 C.3     1  UNL1        0.0224
     16 C         140.3779  139.8227  166.6942 C.3     1  UNL1        0.0057
     17 C         140.8418  139.1975  165.4121 C.3     1  UNL1        0.0163
     18 C         140.4414  141.7898  168.3902 C.ar    1  UNL1       -0.0225
     19 C         140.7800  143.2195  168.6930 C.ar    1  UNL1       -0.0043
     20 C         140.3162  143.8447  169.9752 C.ar    1  UNL1       -0.0003
     21 C         139.5138  143.0404  170.9545 C.ar    1  UNL1       -0.0000
     22 C         139.1752  141.6107  170.6517 C.ar    1  UNL1       -0.0003
     23 C         139.6390  140.9855  169.3695 C.ar    1  UNL1       -0.0043
     24 C         142.3994  138.4010  157.0002 C.3     1  UNL1        0.1759
     25 N         142.2700  136.9771  156.5464 N.am    1  UNL1       -0.2931
     26 C         143.4187  136.3022  155.8573 C.2     1  UNL1        0.2462
     27 O         144.6968  137.0511  155.6219 O.2     1  UNL1       -0.2701
     28 H         141.4311  136.4856  156.7009 H       1  UNL1        0.1502
     29 C         143.2892  134.8783  155.4035 C.ar    1  UNL1        0.0533
     30 C         142.5985  134.5633  154.1098 C.ar    1  UNL1        0.0045
     31 C         142.4691  133.1394  153.6561 C.ar    1  UNL1        0.0001
     32 C         143.0304  132.0306  154.4960 C.ar    1  UNL1        0.0039
     33 C         143.7211  132.3457  155.7897 C.ar    1  UNL1        0.0716
     34 C         143.8505  133.7695  156.2434 C.ar    1  UNL1        0.0084
     35 C         144.2824  131.2369  156.6296 C.3     1  UNL1        0.4186
     36 F         144.8438  130.1281  157.4696 F       1  UNL1       -0.1659
     37 F         145.6690  131.7553  156.3873 F       1  UNL1       -0.1659
     38 F         142.8959  130.7185  156.8719 F       1  UNL1       -0.1659
@<TRIPOS>BOND
     1     1     2    2
     2     2    24    1
     3    24    25    1
     4    25    26   am
     5    26    27    2
     6    26    29    1
     7    29    30   ar
     8    30    31   ar
     9    31    32   ar
    10    32    33   ar
    11    33    35    1
    12    35    36    1
    13    35    37    1
    14    35    38    1
    15    33    34   ar
    16     2     3   am
    17     5     3    1
    18     5     6    1
    19     6     7    1
    20    12     7    1
    21    12    13    1
    22    13    14    1
    23    14    15    1
    24    15    18    1
    25    18    19   ar
    26    19    20   ar
    27    20    21   ar
    28    21    22   ar
    29    22    23   ar
    30    15    16    1
    31    16    17    1
    32     7     8    1
    33     8     9    1
    34     9    10    1
    35    34    29   ar
    36     9     5    1
    37    17    12    1
    38    23    18   ar
    39    25    28    1
    40     3     4    1
    41    10    11    1
@<TRIPOS>MOLECULE
*****
 38 41 0 0 0
SMALL
GASTEIGER

@<TRIPOS>ATOM
      1 O         143.7687  138.7507  159.5163 O.2     1  UNL1       -0.2733
      2 C         143.3789  139.7371  158.4556 C.2     1  UNL1        0.2426
      3 N         143.1789  141.1806  158.8109 N.am    1  UNL1       -0.3009
      4 H         142.9231  141.8280  158.1148 H       1  UNL1        0.1496
      5 C         143.3686  141.6377  160.2270 C.3     1  UNL1        0.1158
      6 C         142.4252  141.3917  161.3668 C.3     1  UNL1        0.0944
      7 N         143.0086  142.0230  162.5961 N.3     1  UNL1       -0.2704
      8 C         144.3127  142.6593  162.2159 C.3     1  UNL1        0.1034
      9 C         144.5352  142.4212  160.7518 C.3     1  UNL1        0.1456
     10 O         145.7169  142.8851  159.9526 O.3     1  UNL1       -0.3813
     11 H         145.6158  142.6001  159.0309 H       1  UNL1        0.2105
     12 C         142.3956  142.0189  163.9651 C.3     1  UNL1        0.0576
     13 C         143.0612  141.2718  165.0825 C.3     1  UNL1        0.0163
     14 C         142.4482  141.2676  166.4516 C.3     1  UNL1        0.0057
     15 C         141.1695  142.0105  166.7030 C.3     1  UNL1        0.0224
     16 C         140.5039  142.7575  165.5856 C.3     1  UNL1        0.0057
     17 C         141.1169  142.7617  164.2166 C.3     1  UNL1        0.0163
     18 C         140.5565  142.0063  168.0721 C.ar    1  UNL1       -0.0225
     19 C         140.6516  143.2260  168.9402 C.ar    1  UNL1       -0.0043
     20 C         140.0386  143.2218  170.3092 C.ar    1  UNL1       -0.0003
     21 C         139.3305  141.9981  170.8101 C.ar    1  UNL1       -0.0000
     22 C         139.2353  140.7784  169.9420 C.ar    1  UNL1       -0.0003
     23 C         139.8484  140.7826  168.5730 C.ar    1  UNL1       -0.0043
     24 C         143.1892  139.2801  157.0397 C.3     1  UNL1        0.1759
     25 N         143.4777  137.8562  156.6661 N.am    1  UNL1       -0.2931
     26 C         142.3658  136.8500  156.6310 C.2     1  UNL1        0.2462
     27 O         140.9654  137.2676  156.9695 O.2     1  UNL1       -0.2701
     28 H         144.3968  137.5821  156.4439 H       1  UNL1        0.1502
     29 C         142.6543  135.4262  156.2574 C.ar    1  UNL1        0.0533
     30 C         141.9506  134.7997  155.0902 C.ar    1  UNL1        0.0045
     31 C         142.2391  133.3759  154.7167 C.ar    1  UNL1        0.0001
     32 C         143.2312  132.5786  155.5104 C.ar    1  UNL1        0.0039
     33 C         143.9349  133.2051  156.6776 C.ar    1  UNL1        0.0716
     34 C         143.6464  134.6288  157.0511 C.ar    1  UNL1        0.0084
     35 C         144.9271  132.4077  157.4712 C.3     1  UNL1        0.4186
     36 F         145.9192  131.6104  158.2649 F       1  UNL1       -0.1659
     37 F         145.1671  131.5239  156.2833 F       1  UNL1       -0.1659
     38 F         144.6870  133.2915  158.6592 F       1  UNL1       -0.1659
@<TRIPOS>BOND
     1     1     2    2
     2     2    24    1
     3    24    25    1
     4    25    26   am
     5    26    27    2
     6    26    29    1
     7    29    30   ar
     8    30    31   ar
     9    31    32   ar
    10    32    33   ar
    11    33    35    1
    12    35    36    1
    13    35    37    1
    14    35    38    1
    15    33    34   ar
    16     2     3   am
    17     5     3    1
    18     5     6    1
    19     6     7    1
    20    12     7    1
    21    12    13    1
    22    13    14    1
    23    14    15    1
    24    15    18    1
    25    18    19   ar
    26    19    20   ar
    27    20    21   ar
    28    21    22   ar
    29    22    23   ar
    30    15    16    1
    31    16    17    1
    32     7     8    1
    33     8     9    1
    34     9    10    1
    35    34    29   ar
    36     9     5    1
    37    17    12    1
    38    23    18   ar
    39    25    28    1
    40     3     4    1
    41    10    11    1
@<TRIPOS>MOLECULE
*****
 38 41 0 0 0
SMALL
GASTEIGER

@<TRIPOS>ATOM
      1 O         140.5499  138.8102  157.5418 O.2     1  UNL1       -0.2733
      2 C         141.5717  137.7726  157.1821 C.2     1  UNL1        0.2426
      3 N         142.7825  137.5812  158.0464 N.am    1  UNL1       -0.3009
      4 H         143.4531  136.9001  157.8103 H       1  UNL1        0.1496
      5 C         142.9717  138.4273  159.2705 C.3     1  UNL1        0.1158
      6 C         142.4037  138.1495  160.6307 C.3     1  UNL1        0.0944
      7 N         142.8430  139.2503  161.5501 N.3     1  UNL1       -0.2704
      8 C         143.6825  140.2084  160.7581 C.3     1  UNL1        0.1034
      9 C         143.7620  139.6998  159.3493 C.3     1  UNL1        0.1456
     10 O         144.5020  140.3495  158.2177 O.3     1  UNL1       -0.3813
     11 H         144.3936  139.8184  157.4133 H       1  UNL1        0.2105
     12 C         142.5025  139.3716  163.0060 C.3     1  UNL1        0.0576
     13 C         142.5545  138.1622  163.8916 C.3     1  UNL1        0.0163
     14 C         142.2141  138.2835  165.3475 C.3     1  UNL1        0.0057
     15 C         141.8217  139.6144  165.9175 C.3     1  UNL1        0.0224
     16 C         141.7696  140.8238  165.0319 C.3     1  UNL1        0.0057
     17 C         142.1101  140.7024  163.5760 C.3     1  UNL1        0.0163
     18 C         141.4812  139.7357  167.3733 C.ar    1  UNL1       -0.0225
     19 C         142.5214  139.4428  168.4138 C.ar    1  UNL1       -0.0043
     20 C         142.1809  139.5642  169.8696 C.ar    1  UNL1       -0.0003
     21 C         140.8004  139.9784  170.2850 C.ar    1  UNL1       -0.0000
     22 C         139.7603  140.2714  169.2446 C.ar    1  UNL1       -0.0003
     23 C         140.1007  140.1500  167.7888 C.ar    1  UNL1       -0.0043
     24 C         141.3826  136.9265  155.9580 C.3     1  UNL1        0.1759
     25 N         141.4548  135.4318  156.0610 N.am    1  UNL1       -0.2931
     26 C         142.7882  134.7454  156.0891 C.2     1  UNL1        0.2462
     27 O         144.0495  135.5537  156.0142 O.2     1  UNL1       -0.2701
     28 H         140.6269  134.9012  156.1102 H       1  UNL1        0.1502
     29 C         142.8603  133.2506  156.1921 C.ar    1  UNL1        0.0533
     30 C         143.9615  132.6054  156.9802 C.ar    1  UNL1        0.0045
     31 C         144.0336  131.1107  157.0831 C.ar    1  UNL1        0.0001
     32 C         143.0045  130.2612  156.3981 C.ar    1  UNL1        0.0039
     33 C         141.9033  130.9065  155.6101 C.ar    1  UNL1        0.0716
     34 C         141.8312  132.4011  155.5071 C.ar    1  UNL1        0.0084
     35 C         140.8742  130.0570  154.9250 C.3     1  UNL1        0.4186
     36 F         139.8451  129.2075  154.2399 F       1  UNL1       -0.1659
     37 F         139.9449  131.2328  154.8630 F       1  UNL1       -0.1659
     38 F         141.8035  128.8812  154.9870 F       1  UNL1       -0.1659
@<TRIPOS>BOND
     1     1     2    2
     2     2    24    1
     3    24    25    1
     4    25    26   am
     5    26    27    2
     6    26    29    1
     7    29    30   ar
     8    30    31   ar
     9    31    32   ar
    10    32    33   ar
    11    33    35    1
    12    35    36    1
    13    35    37    1
    14    35    38    1
    15    33    34   ar
    16     2     3   am
    17     5     3    1
    18     5     6    1
    19     6     7    1
    20    12     7    1
    21    12    13    1
    22    13    14    1
    23    14    15    1
    24    15    18    1
    25    18    19   ar
    26    19    20   ar
    27    20    21   ar
    28    21    22   ar
    29    22    23   ar
    30    15    16    1
    31    16    17    1
    32     7     8    1
    33     8     9    1
    34     9    10    1
    35    34    29   ar
    36     9     5    1
    37    17    12    1
    38    23    18   ar
    39    25    28    1
    40     3     4    1
    41    10    11    1
@<TRIPOS>MOLECULE
*****
 38 41 0 0 0
SMALL
GASTEIGER

@<TRIPOS>ATOM
      1 O         137.4227  140.2870  157.5932 O.2     1  UNL1       -0.2733
      2 C         137.3110  141.5851  156.8497 C.2     1  UNL1        0.2426
      3 N         138.1069  142.7757  157.2958 N.am    1  UNL1       -0.3009
      4 H         138.0336  143.6276  156.8078 H       1  UNL1        0.1496
      5 C         139.0145  142.6684  158.4852 C.3     1  UNL1        0.1158
      6 C         138.5840  142.4571  159.9065 C.3     1  UNL1        0.0944
      7 N         139.8154  142.4116  160.7619 N.3     1  UNL1       -0.2704
      8 C         141.0069  142.5948  159.8693 C.3     1  UNL1        0.1034
      9 C         140.5119  142.7534  158.4622 C.3     1  UNL1        0.1456
     10 O         141.3646  142.9608  157.2456 O.3     1  UNL1       -0.3813
     11 H         140.7976  143.0332  156.4619 H       1  UNL1        0.2105
     12 C         139.8493  142.2171  162.2489 C.3     1  UNL1        0.0576
     13 C         141.1648  142.1363  162.9648 C.3     1  UNL1        0.0163
     14 C         141.1989  141.9418  164.4517 C.3     1  UNL1        0.0057
     15 C         139.9171  141.8282  165.2227 C.3     1  UNL1        0.0224
     16 C         138.6015  141.9090  164.5068 C.3     1  UNL1        0.0057
     17 C         138.5676  142.1035  163.0198 C.3     1  UNL1        0.0163
     18 C         139.9510  141.6337  166.7097 C.ar    1  UNL1       -0.0225
     19 C         139.4762  140.3428  167.3083 C.ar    1  UNL1       -0.0043
     20 C         139.5101  140.1483  168.7952 C.ar    1  UNL1       -0.0003
     21 C         140.0188  141.2446  169.6836 C.ar    1  UNL1       -0.0000
     22 C         140.4936  142.5356  169.0850 C.ar    1  UNL1       -0.0003
     23 C         140.4597  142.7300  167.5981 C.ar    1  UNL1       -0.0043
     24 C         136.4035  141.6925  155.6603 C.3     1  UNL1        0.1759
     25 N         134.9154  141.6850  155.8492 N.am    1  UNL1       -0.2931
     26 C         134.1610  140.3891  155.8115 C.2     1  UNL1        0.2462
     27 O         134.8947  139.1005  155.5848 O.2     1  UNL1       -0.2701
     28 H         134.4339  142.5307  155.9980 H       1  UNL1        0.1502
     29 C         132.6730  140.3817  156.0003 C.ar    1  UNL1        0.0533
     30 C         131.8326  141.4572  155.3783 C.ar    1  UNL1        0.0045
     31 C         130.3446  141.4497  155.5672 C.ar    1  UNL1        0.0001
     32 C         129.6969  140.3667  156.3782 C.ar    1  UNL1        0.0039
     33 C         130.5373  139.2912  157.0002 C.ar    1  UNL1        0.0716
     34 C         132.0253  139.2987  156.8113 C.ar    1  UNL1        0.0084
     35 C         129.8896  138.2082  157.8112 C.3     1  UNL1        0.4186
     36 F         129.2420  137.1253  158.6222 F       1  UNL1       -0.1659
     37 F         130.0693  137.2483  156.6727 F       1  UNL1       -0.1659
     38 F         129.7100  139.1682  158.9497 F       1  UNL1       -0.1659
@<TRIPOS>BOND
     1     1     2    2
     2     2    24    1
     3    24    25    1
     4    25    26   am
     5    26    27    2
     6    26    29    1
     7    29    30   ar
     8    30    31   ar
     9    31    32   ar
    10    32    33   ar
    11    33    35    1
    12    35    36    1
    13    35    37    1
    14    35    38    1
    15    33    34   ar
    16     2     3   am
    17     5     3    1
    18     5     6    1
    19     6     7    1
    20    12     7    1
    21    12    13    1
    22    13    14    1
    23    14    15    1
    24    15    18    1
    25    18    19   ar
    26    19    20   ar
    27    20    21   ar
    28    21    22   ar
    29    22    23   ar
    30    15    16    1
    31    16    17    1
    32     7     8    1
    33     8     9    1
    34     9    10    1
    35    34    29   ar
    36     9     5    1
    37    17    12    1
    38    23    18   ar
    39    25    28    1
    40     3     4    1
    41    10    11    1
