@<TRIPOS>MOLECULE
*****
 37 40 0 0 0
SMALL
GASTEIGER

@<TRIPOS>ATOM
      1 C         139.1433  141.3905  160.8477 C.2     1  UNL1        0.1397
      2 C         139.2613  140.7749  159.4850 C.2     1  UNL1        0.1355
      3 N         139.3603  141.6517  158.2720 N.pl3   1  UNL1       -0.1998
      4 C         139.3413  143.1440  158.4216 C.2     1  UNL1        0.3442
      5 N         139.2232  143.7596  159.7843 N.2     1  UNL1       -0.0580
      6 C         139.1242  142.8829  160.9974 C.3     1  UNL1        0.2692
      7 H         139.4378  141.2476  157.3775 H       1  UNL1        0.2983
      8 C         139.0062  143.4986  162.3601 C.ar    1  UNL1        0.0371
      9 C         137.6607  143.6282  163.0106 C.ar    1  UNL1        0.0030
     10 C         137.5426  144.2438  164.3733 C.ar    1  UNL1        0.0295
     11 C         138.7700  144.7300  165.0856 C.ar    1  UNL1        0.1406
     12 F         138.6519  145.3456  166.4483 F       1  UNL1       -0.2042
     13 C         140.1154  144.6004  164.4352 C.ar    1  UNL1        0.0362
     14 C         140.2335  143.9847  163.0724 C.ar    1  UNL1        0.0372
     15 BR        141.5789  143.8551  162.4220 Br      1  UNL1       -0.0491
     16 C         139.4403  144.0208  157.2085 C.ar    1  UNL1        0.1931
     17 N         140.0086  145.4083  157.1675 N.ar    1  UNL1       -0.2297
     18 C         139.9079  145.9090  155.7571 C.ar    1  UNL1        0.1067
     19 C         139.2773  144.8309  154.9265 C.ar    1  UNL1        0.0577
     20 S         138.9883  143.6639  155.8235 S.2     1  UNL1       -0.0586
     21 C         139.0443  140.5138  162.0608 C.2     1  UNL1        0.3447
     22 O         137.7248  139.9138  162.4469 O.2     1  UNL1       -0.2450
     23 O         140.2647  140.2370  162.8878 O.3     1  UNL1       -0.4455
     24 C         139.4340  141.0253  165.2199 C.3     1  UNL1        0.0513
     25 C         140.1343  140.0110  164.3649 C.3     1  UNL1        0.2089
     26 C         139.2804  139.2825  159.3353 C.3     1  UNL1        0.1408
     27 N         140.5606  138.5792  158.9940 N.3     1  UNL1       -0.2555
     28 C         141.6304  138.4224  160.0337 C.3     1  UNL1        0.1053
     29 C         142.9106  137.7192  159.6924 C.3     1  UNL1        0.1595
     30 O         143.1210  137.1727  158.3114 O.3     1  UNL1       -0.3503
     31 C         142.0512  137.3295  157.2717 C.3     1  UNL1        0.1674
     32 C         140.7710  138.0327  157.6130 C.3     1  UNL1        0.1648
     33 C         139.7012  138.1895  156.5733 C.2     1  UNL1        0.2364
     34 N         138.9142  136.9954  156.1210 N.am    1  UNL1       -0.3276
     35 O         139.4185  139.5405  155.9860 O.2     1  UNL1       -0.2738
     36 H         139.0997  136.1088  156.5066 H       1  UNL1        0.1450
     37 H         138.2120  137.0983  155.4387 H       1  UNL1        0.1450
@<TRIPOS>BOND
     1    24    25    1
     2    25    23    1
     3    23    21    1
     4    21    22    2
     5    21     1    1
     6     1     2    2
     7     2    26    1
     8    26    27    1
     9    27    28    1
    10    28    29    1
    11    29    30    1
    12    30    31    1
    13    31    32    1
    14    32    33    1
    15    33    34   am
    16    33    35    2
    17     2     3    1
    18     3     4    1
    19     4    16    1
    20    16    17   ar
    21    17    18   ar
    22    18    19   ar
    23    19    20   ar
    24     4     5    2
    25     5     6    1
    26     6     8    1
    27     8     9   ar
    28     9    10   ar
    29    10    11   ar
    30    11    12    1
    31    11    13   ar
    32    13    14   ar
    33    14    15    1
    34     6     1    1
    35    14     8   ar
    36    32    27    1
    37    20    16   ar
    38    34    36    1
    39    34    37    1
    40     3     7    1
@<TRIPOS>MOLECULE
*****
 37 40 0 0 0
SMALL
GASTEIGER

@<TRIPOS>ATOM
      1 C         141.4017  139.7432  164.0474 C.2     1  UNL1        0.1397
      2 C         141.6487  139.9736  162.5859 C.2     1  UNL1        0.1355
      3 N         141.3589  141.3142  161.9786 N.pl3   1  UNL1       -0.1998
      4 C         140.8222  142.4244  162.8327 C.2     1  UNL1        0.3442
      5 N         140.5753  142.1939  164.2942 N.2     1  UNL1       -0.0580
      6 C         140.8651  140.8533  164.9015 C.3     1  UNL1        0.2692
      7 H         141.5210  141.4655  161.0194 H       1  UNL1        0.2983
      8 C         140.6181  140.6229  166.3630 C.ar    1  UNL1        0.0371
      9 C         141.6707  140.9865  167.3680 C.ar    1  UNL1        0.0030
     10 C         141.4238  140.7561  168.8294 C.ar    1  UNL1        0.0295
     11 C         140.1243  140.1620  169.2860 C.ar    1  UNL1        0.1406
     12 F         139.8774  139.9316  170.7475 F       1  UNL1       -0.2042
     13 C         139.0717  139.7984  168.2811 C.ar    1  UNL1        0.0362
     14 C         139.3187  140.0288  166.8196 C.ar    1  UNL1        0.0372
     15 BR        138.2661  139.6652  165.8147 Br      1  UNL1       -0.0491
     16 C         140.5325  143.7649  162.2254 C.ar    1  UNL1        0.1931
     17 N         139.9955  144.9636  162.9498 N.ar    1  UNL1       -0.2297
     18 C         139.8600  146.0818  161.9592 C.ar    1  UNL1        0.1067
     19 C         140.3132  145.5741  160.6224 C.ar    1  UNL1        0.0577
     20 S         140.7288  144.1423  160.7870 S.2     1  UNL1       -0.0586
     21 C         141.6915  138.4026  164.6547 C.2     1  UNL1        0.3447
     22 O         140.6625  137.3130  164.5930 O.2     1  UNL1       -0.2450
     23 O         143.0103  138.1516  165.3238 O.3     1  UNL1       -0.4455
     24 C         145.0118  139.3812  164.2138 C.3     1  UNL1        0.0513
     25 C         144.0520  139.2303  165.3567 C.3     1  UNL1        0.2089
     26 C         142.1854  138.8635  161.7317 C.3     1  UNL1        0.1408
     27 N         141.7006  138.7007  160.3216 N.3     1  UNL1       -0.2555
     28 C         142.6869  138.6134  159.1948 C.3     1  UNL1        0.1053
     29 C         142.2021  138.4507  157.7847 C.3     1  UNL1        0.1595
     30 O         140.7310  138.3752  157.5013 O.3     1  UNL1       -0.3503
     31 C         139.7447  138.4625  158.6281 C.3     1  UNL1        0.1674
     32 C         140.2295  138.6252  160.0382 C.3     1  UNL1        0.1648
     33 C         139.2432  138.7125  161.1650 C.2     1  UNL1        0.2364
     34 N         138.9893  137.5164  162.0338 N.am    1  UNL1       -0.3276
     35 O         138.5109  139.9960  161.4230 O.2     1  UNL1       -0.2738
     36 H         139.4699  136.6741  161.8645 H       1  UNL1        0.1450
     37 H         138.3419  137.5737  162.7733 H       1  UNL1        0.1450
@<TRIPOS>BOND
     1    24    25    1
     2    25    23    1
     3    23    21    1
     4    21    22    2
     5    21     1    1
     6     1     2    2
     7     2    26    1
     8    26    27    1
     9    27    28    1
    10    28    29    1
    11    29    30    1
    12    30    31    1
    13    31    32    1
    14    32    33    1
    15    33    34   am
    16    33    35    2
    17     2     3    1
    18     3     4    1
    19     4    16    1
    20    16    17   ar
    21    17    18   ar
    22    18    19   ar
    23    19    20   ar
    24     4     5    2
    25     5     6    1
    26     6     8    1
    27     8     9   ar
    28     9    10   ar
    29    10    11   ar
    30    11    12    1
    31    11    13   ar
    32    13    14   ar
    33    14    15    1
    34     6     1    1
    35    14     8   ar
    36    32    27    1
    37    20    16   ar
    38    34    36    1
    39    34    37    1
    40     3     7    1
@<TRIPOS>MOLECULE
*****
 37 40 0 0 0
SMALL
GASTEIGER

@<TRIPOS>ATOM
      1 C         141.0440  140.3089  164.4982 C.2     1  UNL1        0.1397
      2 C         140.8517  140.2131  163.0137 C.2     1  UNL1        0.1355
      3 N         140.6122  141.4547  162.2067 N.pl3   1  UNL1       -0.1998
      4 C         140.5651  142.7920  162.8843 C.2     1  UNL1        0.3442
      5 N         140.7573  142.8878  164.3688 N.2     1  UNL1       -0.0580
      6 C         140.9968  141.6463  165.1757 C.3     1  UNL1        0.2692
      7 H         140.4860  141.3918  161.2324 H       1  UNL1        0.2983
      8 C         141.1891  141.7421  166.6603 C.ar    1  UNL1        0.0371
      9 C         140.0534  141.4207  167.5860 C.ar    1  UNL1        0.0030
     10 C         140.2456  141.5165  169.0705 C.ar    1  UNL1        0.0295
     11 C         141.5736  141.9339  169.6294 C.ar    1  UNL1        0.1406
     12 F         141.7658  142.0297  171.1139 F       1  UNL1       -0.2042
     13 C         142.7093  142.2553  168.7038 C.ar    1  UNL1        0.0362
     14 C         142.5170  142.1594  167.2192 C.ar    1  UNL1        0.0372
     15 BR        143.6527  142.4809  166.2935 Br      1  UNL1       -0.0491
     16 C         140.3256  144.0336  162.0774 C.ar    1  UNL1        0.1931
     17 N         139.7214  145.3104  162.5821 N.ar    1  UNL1       -0.2297
     18 C         139.6707  146.2823  161.4407 C.ar    1  UNL1        0.1067
     19 C         140.2435  145.6062  160.2304 C.ar    1  UNL1        0.0577
     20 S         140.6483  144.2164  160.6239 S.2     1  UNL1       -0.0586
     21 C         141.2834  139.0673  165.3051 C.2     1  UNL1        0.3447
     22 O         142.6772  138.6998  165.7203 O.2     1  UNL1       -0.2450
     23 O         140.1291  138.1933  165.6970 O.3     1  UNL1       -0.4455
     24 C         137.7915  138.5688  166.7669 C.3     1  UNL1        0.0513
     25 C         138.7265  138.7165  165.6032 C.3     1  UNL1        0.2089
     26 C         140.8988  138.8756  162.3360 C.3     1  UNL1        0.1408
     27 N         141.0024  138.7952  160.8418 N.3     1  UNL1       -0.2555
     28 C         139.7582  138.7528  160.0050 C.3     1  UNL1        0.1053
     29 C         139.8618  138.6724  158.5107 C.3     1  UNL1        0.1595
     30 O         141.2095  138.6343  157.8533 O.3     1  UNL1       -0.3503
     31 C         142.4536  138.6767  158.6901 C.3     1  UNL1        0.1674
     32 C         142.3501  138.7571  160.1843 C.3     1  UNL1        0.1648
     33 C         143.5943  138.7995  161.0212 C.2     1  UNL1        0.2364
     34 N         144.2859  137.5241  161.4018 N.am    1  UNL1       -0.3276
     35 O         144.1468  140.1174  161.4773 O.2     1  UNL1       -0.2738
     36 H         143.9233  136.6591  161.1025 H       1  UNL1        0.1450
     37 H         145.1025  137.5519  161.9511 H       1  UNL1        0.1450
@<TRIPOS>BOND
     1    24    25    1
     2    25    23    1
     3    23    21    1
     4    21    22    2
     5    21     1    1
     6     1     2    2
     7     2    26    1
     8    26    27    1
     9    27    28    1
    10    28    29    1
    11    29    30    1
    12    30    31    1
    13    31    32    1
    14    32    33    1
    15    33    34   am
    16    33    35    2
    17     2     3    1
    18     3     4    1
    19     4    16    1
    20    16    17   ar
    21    17    18   ar
    22    18    19   ar
    23    19    20   ar
    24     4     5    2
    25     5     6    1
    26     6     8    1
    27     8     9   ar
    28     9    10   ar
    29    10    11   ar
    30    11    12    1
    31    11    13   ar
    32    13    14   ar
    33    14    15    1
    34     6     1    1
    35    14     8   ar
    36    32    27    1
    37    20    16   ar
    38    34    36    1
    39    34    37    1
    40     3     7    1
@<TRIPOS>MOLECULE
*****
 37 40 0 0 0
SMALL
GASTEIGER

@<TRIPOS>ATOM
      1 C         140.6139  141.0738  161.5347 C.2     1  UNL1        0.1397
      2 C         139.9274  141.4700  160.2612 C.2     1  UNL1        0.1355
      3 N         139.9514  140.5483  159.0781 N.pl3   1  UNL1       -0.1998
      4 C         140.6620  139.2304  159.1683 C.2     1  UNL1        0.3442
      5 N         141.3486  138.8342  160.4417 N.2     1  UNL1       -0.0580
      6 C         141.3245  139.7559  161.6249 C.3     1  UNL1        0.2692
      7 H         139.5008  140.8084  158.2423 H       1  UNL1        0.2983
      8 C         142.0111  139.3596  162.8983 C.ar    1  UNL1        0.0371
      9 C         141.2401  138.6646  163.9812 C.ar    1  UNL1        0.0030
     10 C         141.9266  138.2683  165.2546 C.ar    1  UNL1        0.0295
     11 C         143.3842  138.5671  165.4452 C.ar    1  UNL1        0.1406
     12 F         144.0708  138.1708  166.7186 F       1  UNL1       -0.2042
     13 C         144.1552  139.2621  164.3624 C.ar    1  UNL1        0.0362
     14 C         143.4686  139.6584  163.0889 C.ar    1  UNL1        0.0372
     15 BR        144.2396  140.3534  162.0061 Br      1  UNL1       -0.0491
     16 C         140.6861  138.3088  157.9851 C.ar    1  UNL1        0.1931
     17 N         139.5016  137.9035  157.1589 N.ar    1  UNL1       -0.2297
     18 C         139.9823  136.9748  156.0835 C.ar    1  UNL1        0.1067
     19 C         141.4640  136.8061  156.2451 C.ar    1  UNL1        0.0577
     20 S         141.8989  137.6305  157.4203 S.2     1  UNL1       -0.0586
     21 C         140.5899  141.9955  162.7179 C.2     1  UNL1        0.3447
     22 O         139.3951  142.0212  163.6243 O.2     1  UNL1       -0.2450
     23 O         141.7606  142.8914  162.9946 O.3     1  UNL1       -0.4455
     24 C         142.7401  142.5556  165.3774 C.3     1  UNL1        0.0513
     25 C         142.0017  143.4029  164.3839 C.3     1  UNL1        0.2089
     26 C         139.2167  142.7879  160.1710 C.3     1  UNL1        0.1408
     27 N         139.4624  143.6939  159.0010 N.3     1  UNL1       -0.2555
     28 C         139.0615  143.2627  157.6214 C.3     1  UNL1        0.1053
     29 C         139.3072  144.1687  156.4514 C.3     1  UNL1        0.1595
     30 O         139.9537  145.5059  156.6611 O.3     1  UNL1       -0.3503
     31 C         140.3545  145.9371  158.0407 C.3     1  UNL1        0.1674
     32 C         140.1089  145.0311  159.2107 C.3     1  UNL1        0.1648
     33 C         140.5097  145.4623  160.5903 C.2     1  UNL1        0.2364
     34 N         141.8969  145.1856  161.0892 N.am    1  UNL1       -0.3276
     35 O         139.5232  146.1703  161.4711 O.2     1  UNL1       -0.2738
     36 H         142.5444  144.7210  160.5111 H       1  UNL1        0.1450
     37 H         142.1600  145.4687  161.9947 H       1  UNL1        0.1450
@<TRIPOS>BOND
     1    24    25    1
     2    25    23    1
     3    23    21    1
     4    21    22    2
     5    21     1    1
     6     1     2    2
     7     2    26    1
     8    26    27    1
     9    27    28    1
    10    28    29    1
    11    29    30    1
    12    30    31    1
    13    31    32    1
    14    32    33    1
    15    33    34   am
    16    33    35    2
    17     2     3    1
    18     3     4    1
    19     4    16    1
    20    16    17   ar
    21    17    18   ar
    22    18    19   ar
    23    19    20   ar
    24     4     5    2
    25     5     6    1
    26     6     8    1
    27     8     9   ar
    28     9    10   ar
    29    10    11   ar
    30    11    12    1
    31    11    13   ar
    32    13    14   ar
    33    14    15    1
    34     6     1    1
    35    14     8   ar
    36    32    27    1
    37    20    16   ar
    38    34    36    1
    39    34    37    1
    40     3     7    1
@<TRIPOS>MOLECULE
*****
 37 40 0 0 0
SMALL
GASTEIGER

@<TRIPOS>ATOM
      1 C         140.3623  140.9866  161.3588 C.2     1  UNL1        0.1397
      2 C         139.7280  141.4038  160.0651 C.2     1  UNL1        0.1355
      3 N         139.7844  140.4934  158.8743 N.pl3   1  UNL1       -0.1998
      4 C         140.4750  139.1659  158.9771 C.2     1  UNL1        0.3442
      5 N         141.1092  138.7487  160.2708 N.2     1  UNL1       -0.0580
      6 C         141.0529  139.6590  161.4616 C.3     1  UNL1        0.2692
      7 H         139.3681  140.7672  158.0252 H       1  UNL1        0.2983
      8 C         141.6872  139.2418  162.7553 C.ar    1  UNL1        0.0371
      9 C         143.0951  139.6543  163.0677 C.ar    1  UNL1        0.0030
     10 C         143.7294  139.2371  164.3613 C.ar    1  UNL1        0.0295
     11 C         142.9557  138.4073  165.3427 C.ar    1  UNL1        0.1406
     12 F         143.5900  137.9901  166.6363 F       1  UNL1       -0.2042
     13 C         141.5478  137.9948  165.0304 C.ar    1  UNL1        0.0362
     14 C         140.9135  138.4120  163.7366 C.ar    1  UNL1        0.0372
     15 BR        139.5056  137.9995  163.4243 Br      1  UNL1       -0.0491
     16 C         140.5313  138.2555  157.7863 C.ar    1  UNL1        0.1931
     17 N         139.3699  137.8592  156.9237 N.ar    1  UNL1       -0.2297
     18 C         139.8798  136.9403  155.8533 C.ar    1  UNL1        0.1067
     19 C         141.3563  136.7688  156.0543 C.ar    1  UNL1        0.0577
     20 S         141.7590  137.5816  157.2490 S.2     1  UNL1       -0.0586
     21 C         140.3059  141.8969  162.5496 C.2     1  UNL1        0.3447
     22 O         141.4292  142.8549  162.8152 O.2     1  UNL1       -0.2450
     23 O         139.1263  141.8494  163.4748 O.3     1  UNL1       -0.4455
     24 C         138.4094  144.1475  164.4520 C.3     1  UNL1        0.0513
     25 C         138.1623  142.9977  163.5208 C.3     1  UNL1        0.2089
     26 C         139.0374  142.7314  159.9622 C.3     1  UNL1        0.1408
     27 N         139.3529  143.6546  158.8229 N.3     1  UNL1       -0.2555
     28 C         138.9539  143.2845  157.4251 C.3     1  UNL1        0.1053
     29 C         139.2694  144.2078  156.2857 C.3     1  UNL1        0.1595
     30 O         139.9839  145.5011  156.5442 O.3     1  UNL1       -0.3503
     31 C         140.3828  145.8712  157.9420 C.3     1  UNL1        0.1674
     32 C         140.0673  144.9480  159.0813 C.3     1  UNL1        0.1648
     33 C         140.4663  145.3181  160.4791 C.2     1  UNL1        0.2364
     34 N         141.8799  145.1101  160.9356 N.am    1  UNL1       -0.3276
     35 O         139.4515  145.8963  161.4205 O.2     1  UNL1       -0.2738
     36 H         142.5459  144.7307  160.3178 H       1  UNL1        0.1450
     37 H         142.1417  145.3530  161.8530 H       1  UNL1        0.1450
@<TRIPOS>BOND
     1    24    25    1
     2    25    23    1
     3    23    21    1
     4    21    22    2
     5    21     1    1
     6     1     2    2
     7     2    26    1
     8    26    27    1
     9    27    28    1
    10    28    29    1
    11    29    30    1
    12    30    31    1
    13    31    32    1
    14    32    33    1
    15    33    34   am
    16    33    35    2
    17     2     3    1
    18     3     4    1
    19     4    16    1
    20    16    17   ar
    21    17    18   ar
    22    18    19   ar
    23    19    20   ar
    24     4     5    2
    25     5     6    1
    26     6     8    1
    27     8     9   ar
    28     9    10   ar
    29    10    11   ar
    30    11    12    1
    31    11    13   ar
    32    13    14   ar
    33    14    15    1
    34     6     1    1
    35    14     8   ar
    36    32    27    1
    37    20    16   ar
    38    34    36    1
    39    34    37    1
    40     3     7    1
@<TRIPOS>MOLECULE
*****
 37 40 0 0 0
SMALL
GASTEIGER

@<TRIPOS>ATOM
      1 C         141.1078  139.9524  164.4783 C.2     1  UNL1        0.1397
      2 C         141.1129  139.9887  162.9788 C.2     1  UNL1        0.1355
      3 N         140.8756  141.2833  162.2591 N.pl3   1  UNL1       -0.1998
      4 C         140.6333  142.5414  163.0390 C.2     1  UNL1        0.3442
      5 N         140.6282  142.5051  164.5385 N.2     1  UNL1       -0.0580
      6 C         140.8654  141.2106  165.2582 C.3     1  UNL1        0.2692
      7 H         140.8790  141.3071  161.2749 H       1  UNL1        0.2983
      8 C         140.8603  141.1743  166.7578 C.ar    1  UNL1        0.0371
      9 C         139.6675  140.6360  167.4909 C.ar    1  UNL1        0.0030
     10 C         139.6623  140.5997  168.9904 C.ar    1  UNL1        0.0295
     11 C         140.8500  141.1017  169.7569 C.ar    1  UNL1        0.1406
     12 F         140.8449  141.0654  171.2564 F       1  UNL1       -0.2042
     13 C         142.0429  141.6400  169.0238 C.ar    1  UNL1        0.0362
     14 C         142.0480  141.6762  167.5242 C.ar    1  UNL1        0.0372
     15 BR        143.2408  142.2145  166.7911 Br      1  UNL1       -0.0491
     16 C         140.3960  143.8360  162.3193 C.ar    1  UNL1        0.1931
     17 N         140.7654  144.1343  160.8964 N.ar    1  UNL1       -0.2297
     18 C         140.3454  145.5421  160.5939 C.ar    1  UNL1        0.1067
     19 C         139.7164  146.1139  161.8298 C.ar    1  UNL1        0.0577
     20 S         139.7477  145.0595  162.8961 S.2     1  UNL1       -0.0586
     21 C         141.3450  138.6579  165.1980 C.2     1  UNL1        0.3447
     22 O         142.6315  138.4352  165.9365 O.2     1  UNL1       -0.2450
     23 O         140.2959  137.5861  165.1792 O.3     1  UNL1       -0.4455
     24 C         137.9851  137.6679  166.3639 C.3     1  UNL1        0.0513
     25 C         138.8430  137.9589  165.1683 C.3     1  UNL1        0.2089
     26 C         141.3553  138.7305  162.1989 C.3     1  UNL1        0.1408
     27 N         141.1340  138.7133  160.7154 N.3     1  UNL1       -0.2555
     28 C         142.3063  138.6333  159.7831 C.3     1  UNL1        0.1053
     29 C         142.0850  138.6161  158.2996 C.3     1  UNL1        0.1595
     30 O         140.6914  138.6788  157.7484 O.3     1  UNL1       -0.3503
     31 C         139.5190  138.7588  158.6807 C.3     1  UNL1        0.1674
     32 C         139.7403  138.7760  160.1642 C.3     1  UNL1        0.1648
     33 C         138.5679  138.8560  161.0965 C.2     1  UNL1        0.2364
     34 N         137.9902  137.6027  161.6842 N.am    1  UNL1       -0.3276
     35 O         137.9733  140.1894  161.4411 O.2     1  UNL1       -0.2738
     36 H         138.3805  136.7276  161.4581 H       1  UNL1        0.1450
     37 H         137.2208  137.6552  162.2961 H       1  UNL1        0.1450
@<TRIPOS>BOND
     1    24    25    1
     2    25    23    1
     3    23    21    1
     4    21    22    2
     5    21     1    1
     6     1     2    2
     7     2    26    1
     8    26    27    1
     9    27    28    1
    10    28    29    1
    11    29    30    1
    12    30    31    1
    13    31    32    1
    14    32    33    1
    15    33    34   am
    16    33    35    2
    17     2     3    1
    18     3     4    1
    19     4    16    1
    20    16    17   ar
    21    17    18   ar
    22    18    19   ar
    23    19    20   ar
    24     4     5    2
    25     5     6    1
    26     6     8    1
    27     8     9   ar
    28     9    10   ar
    29    10    11   ar
    30    11    12    1
    31    11    13   ar
    32    13    14   ar
    33    14    15    1
    34     6     1    1
    35    14     8   ar
    36    32    27    1
    37    20    16   ar
    38    34    36    1
    39    34    37    1
    40     3     7    1
@<TRIPOS>MOLECULE
*****
 37 40 0 0 0
SMALL
GASTEIGER

@<TRIPOS>ATOM
      1 C         140.7979  140.3830  162.4246 C.2     1  UNL1        0.1397
      2 C         140.5571  140.1653  160.9602 C.2     1  UNL1        0.1355
      3 N         140.6161  141.3244  160.0099 N.pl3   1  UNL1       -0.1998
      4 C         140.9159  142.7012  160.5241 C.2     1  UNL1        0.3442
      5 N         141.1567  142.9190  161.9885 N.2     1  UNL1       -0.0580
      6 C         141.0977  141.7599  162.9388 C.3     1  UNL1        0.2692
      7 H         140.4581  141.1814  159.0488 H       1  UNL1        0.2983
      8 C         141.3385  141.9777  164.4033 C.ar    1  UNL1        0.0371
      9 C         142.7178  141.8126  164.9692 C.ar    1  UNL1        0.0030
     10 C         142.9586  142.0304  166.4336 C.ar    1  UNL1        0.0295
     11 C         141.8201  142.4133  167.3321 C.ar    1  UNL1        0.1406
     12 F         142.0610  142.6311  168.7965 F       1  UNL1       -0.2042
     13 C         140.4408  142.5784  166.7662 C.ar    1  UNL1        0.0362
     14 C         140.2000  142.3606  165.3017 C.ar    1  UNL1        0.0372
     15 BR        138.8208  142.5257  164.7358 Br      1  UNL1       -0.0491
     16 C         140.9749  143.8603  159.5738 C.ar    1  UNL1        0.1931
     17 N         139.9029  144.8896  159.3710 N.ar    1  UNL1       -0.2297
     18 C         140.3817  145.8591  158.3313 C.ar    1  UNL1        0.1067
     19 C         141.7498  145.4289  157.8915 C.ar    1  UNL1        0.0577
     20 S         142.1164  144.1936  158.6595 S.2     1  UNL1       -0.0586
     21 C         140.7389  139.2240  163.3749 C.2     1  UNL1        0.3447
     22 O         141.9607  138.3874  163.6143 O.2     1  UNL1       -0.2450
     23 O         139.4581  138.9014  164.0858 O.3     1  UNL1       -0.4455
     24 C         138.1533  138.9826  166.3311 C.3     1  UNL1        0.0513
     25 C         139.4382  138.7892  165.5815 C.3     1  UNL1        0.2089
     26 C         140.2573  138.7884  160.4460 C.3     1  UNL1        0.1408
     27 N         140.7723  138.3604  159.1038 N.3     1  UNL1       -0.2555
     28 C         139.8205  138.1767  157.9591 C.3     1  UNL1        0.1053
     29 C         140.3355  137.7487  156.6168 C.3     1  UNL1        0.1595
     30 O         141.8023  137.5045  156.4193 O.3     1  UNL1       -0.3503
     31 C         142.7540  137.6883  157.5640 C.3     1  UNL1        0.1674
     32 C         142.2391  138.1162  158.9062 C.3     1  UNL1        0.1648
     33 C         143.1909  138.3000  160.0509 C.2     1  UNL1        0.2364
     34 N         143.3573  137.2120  161.0699 N.am    1  UNL1       -0.3276
     35 O         143.9762  139.5718  160.1766 O.2     1  UNL1       -0.2738
     36 H         142.8419  136.3772  160.9875 H       1  UNL1        0.1450
     37 H         143.9820  137.3326  161.8212 H       1  UNL1        0.1450
@<TRIPOS>BOND
     1    24    25    1
     2    25    23    1
     3    23    21    1
     4    21    22    2
     5    21     1    1
     6     1     2    2
     7     2    26    1
     8    26    27    1
     9    27    28    1
    10    28    29    1
    11    29    30    1
    12    30    31    1
    13    31    32    1
    14    32    33    1
    15    33    34   am
    16    33    35    2
    17     2     3    1
    18     3     4    1
    19     4    16    1
    20    16    17   ar
    21    17    18   ar
    22    18    19   ar
    23    19    20   ar
    24     4     5    2
    25     5     6    1
    26     6     8    1
    27     8     9   ar
    28     9    10   ar
    29    10    11   ar
    30    11    12    1
    31    11    13   ar
    32    13    14   ar
    33    14    15    1
    34     6     1    1
    35    14     8   ar
    36    32    27    1
    37    20    16   ar
    38    34    36    1
    39    34    37    1
    40     3     7    1
@<TRIPOS>MOLECULE
*****
 37 40 0 0 0
SMALL
GASTEIGER

@<TRIPOS>ATOM
      1 C         140.5770  140.5377  161.3170 C.2     1  UNL1        0.1397
      2 C         139.9937  140.8191  159.9640 C.2     1  UNL1        0.1355
      3 N         140.3563  139.9511  158.7957 N.pl3   1  UNL1       -0.1998
      4 C         141.3022  138.8017  158.9802 C.2     1  UNL1        0.3442
      5 N         141.8855  138.5203  160.3332 N.2     1  UNL1       -0.0580
      6 C         141.5229  139.3883  161.5016 C.3     1  UNL1        0.2692
      7 H         139.9734  140.1359  157.9077 H       1  UNL1        0.2983
      8 C         142.1062  139.1068  162.8546 C.ar    1  UNL1        0.0371
      9 C         143.4062  139.7379  163.2569 C.ar    1  UNL1        0.0030
     10 C         143.9895  139.4565  164.6098 C.ar    1  UNL1        0.0295
     11 C         143.2729  138.5440  165.5605 C.ar    1  UNL1        0.1406
     12 F         143.8563  138.2625  166.9134 F       1  UNL1       -0.2042
     13 C         141.9729  137.9129  165.1582 C.ar    1  UNL1        0.0362
     14 C         141.3896  138.1944  163.8052 C.ar    1  UNL1        0.0372
     15 BR        140.0896  137.5633  163.4029 Br      1  UNL1       -0.0491
     16 C         141.6648  137.9337  157.8118 C.ar    1  UNL1        0.1931
     17 N         143.0215  137.3613  157.5262 N.ar    1  UNL1       -0.2297
     18 C         142.9296  136.5595  156.2618 C.ar    1  UNL1        0.1067
     19 C         141.5160  136.6365  155.7659 C.ar    1  UNL1        0.0577
     20 S         140.7344  137.4858  156.7239 S.2     1  UNL1       -0.0586
     21 C         140.2144  141.4057  162.4854 C.2     1  UNL1        0.3447
     22 O         141.0566  142.6003  162.8222 O.2     1  UNL1       -0.2450
     23 O         139.0095  141.0791  163.3169 O.3     1  UNL1       -0.4455
     24 C         137.8587  143.1854  164.3116 C.3     1  UNL1        0.0513
     25 C         137.8477  142.0269  163.3587 C.3     1  UNL1        0.2089
     26 C         139.0477  141.9686  159.7794 C.3     1  UNL1        0.1408
     27 N         139.4889  143.1898  159.0284 N.3     1  UNL1       -0.2555
     28 C         140.2972  144.2457  159.7223 C.3     1  UNL1        0.1053
     29 C         140.7384  145.4670  158.9713 C.3     1  UNL1        0.1595
     30 O         140.3712  145.6322  157.5263 O.3     1  UNL1       -0.3503
     31 C         139.5629  144.5762  156.8324 C.3     1  UNL1        0.1674
     32 C         139.1217  143.3550  157.5834 C.3     1  UNL1        0.1648
     33 C         138.3134  142.2990  156.8895 C.2     1  UNL1        0.2364
     34 N         136.8304  142.4670  156.7402 N.am    1  UNL1       -0.3276
     35 O         138.9883  141.0750  156.3448 O.2     1  UNL1       -0.2738
     36 H         136.3875  143.2703  157.0976 H       1  UNL1        0.1450
     37 H         136.2999  141.7739  156.2847 H       1  UNL1        0.1450
@<TRIPOS>BOND
     1    24    25    1
     2    25    23    1
     3    23    21    1
     4    21    22    2
     5    21     1    1
     6     1     2    2
     7     2    26    1
     8    26    27    1
     9    27    28    1
    10    28    29    1
    11    29    30    1
    12    30    31    1
    13    31    32    1
    14    32    33    1
    15    33    34   am
    16    33    35    2
    17     2     3    1
    18     3     4    1
    19     4    16    1
    20    16    17   ar
    21    17    18   ar
    22    18    19   ar
    23    19    20   ar
    24     4     5    2
    25     5     6    1
    26     6     8    1
    27     8     9   ar
    28     9    10   ar
    29    10    11   ar
    30    11    12    1
    31    11    13   ar
    32    13    14   ar
    33    14    15    1
    34     6     1    1
    35    14     8   ar
    36    32    27    1
    37    20    16   ar
    38    34    36    1
    39    34    37    1
    40     3     7    1
@<TRIPOS>MOLECULE
*****
 37 40 0 0 0
SMALL
GASTEIGER

@<TRIPOS>ATOM
      1 C         142.5561  139.7889  160.1415 C.2     1  UNL1        0.1397
      2 C         143.3513  140.0732  158.9019 C.2     1  UNL1        0.1355
      3 N         143.4973  139.0179  157.8460 N.pl3   1  UNL1       -0.1998
      4 C         142.8481  137.6782  158.0298 C.2     1  UNL1        0.3442
      5 N         142.0529  137.3939  159.2694 N.2     1  UNL1       -0.0580
      6 C         141.9069  138.4493  160.3253 C.3     1  UNL1        0.2692
      7 H         144.0193  139.2044  157.0324 H       1  UNL1        0.2983
      8 C         141.1116  138.1650  161.5650 C.ar    1  UNL1        0.0371
      9 C         141.7854  137.5794  162.7704 C.ar    1  UNL1        0.0030
     10 C         140.9902  137.2951  164.0101 C.ar    1  UNL1        0.0295
     11 C         139.5211  137.5963  164.0443 C.ar    1  UNL1        0.1406
     12 F         138.7259  137.3120  165.2839 F       1  UNL1       -0.2042
     13 C         138.8473  138.1818  162.8388 C.ar    1  UNL1        0.0362
     14 C         139.6425  138.4662  161.5992 C.ar    1  UNL1        0.0372
     15 BR        138.9687  139.0517  160.3937 Br      1  UNL1       -0.0491
     16 C         142.9941  136.6228  156.9739 C.ar    1  UNL1        0.1931
     17 N         143.0894  135.1449  157.2118 N.ar    1  UNL1       -0.2297
     18 C         143.2247  134.4687  155.8797 C.ar    1  UNL1        0.1067
     19 C         143.2130  135.5288  154.8185 C.ar    1  UNL1        0.0577
     20 S         143.0705  136.8601  155.4948 S.2     1  UNL1       -0.0586
     21 C         142.4101  140.8443  161.1974 C.2     1  UNL1        0.3447
     22 O         141.3930  141.9345  161.0326 O.2     1  UNL1       -0.2450
     23 O         143.2810  140.8095  162.4181 O.3     1  UNL1       -0.4455
     24 C         141.4608  140.9488  164.2667 C.3     1  UNL1        0.0513
     25 C         142.7839  141.3854  163.7109 C.3     1  UNL1        0.2089
     26 C         144.0006  141.4129  158.7181 C.3     1  UNL1        0.1408
     27 N         143.6553  142.2566  157.5269 N.3     1  UNL1       -0.2555
     28 C         142.4648  143.1678  157.5729 C.3     1  UNL1        0.1053
     29 C         142.1195  144.0115  156.3816 C.3     1  UNL1        0.1595
     30 O         142.9648  143.9439  155.1444 O.3     1  UNL1       -0.3503
     31 C         144.1554  143.0326  155.0983 C.3     1  UNL1        0.1674
     32 C         144.5007  142.1890  156.2896 C.3     1  UNL1        0.1648
     33 C         145.6912  141.2777  156.2435 C.2     1  UNL1        0.2364
     34 N         147.0680  141.8307  156.4642 N.am    1  UNL1       -0.3276
     35 O         145.5050  139.8134  155.9767 O.2     1  UNL1       -0.2738
     36 H         147.1902  142.7918  156.6393 H       1  UNL1        0.1450
     37 H         147.8494  141.2326  156.4340 H       1  UNL1        0.1450
@<TRIPOS>BOND
     1    24    25    1
     2    25    23    1
     3    23    21    1
     4    21    22    2
     5    21     1    1
     6     1     2    2
     7     2    26    1
     8    26    27    1
     9    27    28    1
    10    28    29    1
    11    29    30    1
    12    30    31    1
    13    31    32    1
    14    32    33    1
    15    33    34   am
    16    33    35    2
    17     2     3    1
    18     3     4    1
    19     4    16    1
    20    16    17   ar
    21    17    18   ar
    22    18    19   ar
    23    19    20   ar
    24     4     5    2
    25     5     6    1
    26     6     8    1
    27     8     9   ar
    28     9    10   ar
    29    10    11   ar
    30    11    12    1
    31    11    13   ar
    32    13    14   ar
    33    14    15    1
    34     6     1    1
    35    14     8   ar
    36    32    27    1
    37    20    16   ar
    38    34    36    1
    39    34    37    1
    40     3     7    1
