@<TRIPOS>MOLECULE
*****
 30 34 0 0 0
SMALL
GASTEIGER

@<TRIPOS>ATOM
      1 C         138.0041  141.0475  159.7243 C.ar    1  UNL1        0.1074
      2 C         138.4495  142.2854  159.0039 C.ar    1  UNL1        0.0588
      3 S         138.0881  142.1345  157.5560 S.2     1  UNL1       -0.0508
      4 C         137.4193  140.8032  157.3815 C.ar    1  UNL1        0.1646
      5 N         137.3673  140.1315  158.7216 N.ar    1  UNL1       -0.2224
      6 C         137.9162  141.5327  163.6622 C.ar    1  UNL1        0.2416
      7 N         137.7535  141.8065  162.1964 N.ar    1  UNL1       -0.2089
      8 C         138.1667  140.7737  161.1901 C.ar    1  UNL1        0.1026
      9 C         138.7427  139.4671  161.6497 C.ar    1  UNL1        0.0224
     10 C         138.9054  139.1932  163.1154 C.ar    1  UNL1        0.0239
     11 C         138.4921  140.2260  164.1217 C.ar    1  UNL1        0.1189
     12 N         138.6548  139.9522  165.5875 N.ar    1  UNL1       -0.2826
     13 C         137.8791  138.9489  166.3884 C.ar    1  UNL1        0.1826
     14 N         138.3666  139.0102  167.8056 N.ar    1  UNL1       -0.2280
     15 C         139.4437  140.0515  167.8806 C.ar    1  UNL1        0.0786
     16 C         140.2085  140.4421  169.1105 C.3     1  UNL1        0.0538
     17 C         139.6218  140.6336  166.5098 C.ar    1  UNL1        0.0963
     18 C         138.3416  143.7923  164.8716 C.3     1  UNL1        0.2543
     19 O         137.5030  142.5654  164.6685 O.3     1  UNL1       -0.4551
     20 N         136.8945  140.2422  156.0931 N.pl3   1  UNL1       -0.2786
     21 H         137.4552  139.6381  155.5547 H       1  UNL1        0.1555
     22 C         135.5155  140.6018  155.6251 C.ar    1  UNL1        0.1276
     23 C         134.2307  140.2494  156.3143 C.ar    1  UNL1        0.0244
     24 C         133.1003  140.8066  155.5008 C.ar    1  UNL1        0.0773
     25 N         133.6865  141.5034  154.3088 N.ar    1  UNL1       -0.1728
     26 N         135.1792  141.3768  154.3856 N.ar    1  UNL1       -0.2362
     27 C         136.1628  141.9284  153.3966 C.3     1  UNL1        0.1551
     28 C         131.8154  140.4543  156.1901 C.3     1  UNL1        0.0477
     29 C         132.1518  139.6793  157.4295 C.3     1  UNL1        0.0112
     30 C         133.6445  139.5526  157.5063 C.3     1  UNL1        0.0308
@<TRIPOS>BOND
     1    18    19    1
     2    19     6    1
     3     6     7   ar
     4     7     8   ar
     5     8     1    1
     6     1     2   ar
     7     2     3   ar
     8     3     4   ar
     9     4    20    1
    10    20    22    1
    11    22    23   ar
    12    23    24   ar
    13    24    25   ar
    14    25    26   ar
    15    26    27    1
    16    24    28    1
    17    28    29    1
    18    29    30    1
    19     4     5   ar
    20     8     9   ar
    21     9    10   ar
    22    10    11   ar
    23    11    12    1
    24    12    13   ar
    25    13    14   ar
    26    14    15   ar
    27    15    16    1
    28    15    17   ar
    29    11     6   ar
    30    17    12   ar
    31     5     1   ar
    32    26    22   ar
    33    30    23    1
    34    20    21    1
@<TRIPOS>MOLECULE
*****
 30 34 0 0 0
SMALL
GASTEIGER

@<TRIPOS>ATOM
      1 C         138.1487  140.9908  159.9631 C.ar    1  UNL1        0.1074
      2 C         138.5511  142.2571  159.2671 C.ar    1  UNL1        0.0588
      3 S         138.2573  142.0958  157.8050 S.2     1  UNL1       -0.0508
      4 C         137.6734  140.7299  157.5974 C.ar    1  UNL1        0.1646
      5 N         137.6063  140.0469  158.9312 N.ar    1  UNL1       -0.2224
      6 C         138.9694  139.1445  163.3788 C.ar    1  UNL1        0.2416
      7 N         138.8503  139.4188  161.9090 N.ar    1  UNL1       -0.2089
      8 C         138.2678  140.7165  161.4330 C.ar    1  UNL1        0.1026
      9 C         137.8043  141.7400  162.4269 C.ar    1  UNL1        0.0224
     10 C         137.9234  141.4657  163.8968 C.ar    1  UNL1        0.0239
     11 C         138.5060  140.1680  164.3728 C.ar    1  UNL1        0.1189
     12 N         138.6251  139.8937  165.8427 N.ar    1  UNL1       -0.2826
     13 C         137.7844  138.9341  166.6314 C.ar    1  UNL1        0.1826
     14 N         138.2455  138.9782  168.0581 N.ar    1  UNL1       -0.2280
     15 C         139.3713  139.9651  168.1510 C.ar    1  UNL1        0.0786
     16 C         140.1294  140.3234  169.3948 C.3     1  UNL1        0.0538
     17 C         139.6058  140.5309  166.7819 C.ar    1  UNL1        0.0963
     18 C         140.8607  137.3650  163.3028 C.3     1  UNL1        0.2543
     19 O         139.5520  137.8468  163.8549 O.3     1  UNL1       -0.4551
     20 N         137.2338  140.1488  156.2862 N.pl3   1  UNL1       -0.2786
     21 H         137.7468  139.4154  155.8760 H       1  UNL1        0.1555
     22 C         136.0125  140.6851  155.6000 C.ar    1  UNL1        0.1276
     23 C         134.5933  140.4861  156.0429 C.ar    1  UNL1        0.0244
     24 C         133.6997  141.1926  155.0670 C.ar    1  UNL1        0.0773
     25 N         134.5667  141.8283  154.0210 N.ar    1  UNL1       -0.1728
     26 N         135.9961  141.5147  154.3503 N.ar    1  UNL1       -0.2362
     27 C         137.1980  141.9535  153.5675 C.3     1  UNL1        0.1551
     28 C         132.2805  140.9936  155.5099 C.3     1  UNL1        0.0477
     29 C         132.2970  140.1641  156.7596 C.3     1  UNL1        0.0112
     30 C         133.7264  139.8504  157.0890 C.3     1  UNL1        0.0308
@<TRIPOS>BOND
     1    18    19    1
     2    19     6    1
     3     6     7   ar
     4     7     8   ar
     5     8     1    1
     6     1     2   ar
     7     2     3   ar
     8     3     4   ar
     9     4    20    1
    10    20    22    1
    11    22    23   ar
    12    23    24   ar
    13    24    25   ar
    14    25    26   ar
    15    26    27    1
    16    24    28    1
    17    28    29    1
    18    29    30    1
    19     4     5   ar
    20     8     9   ar
    21     9    10   ar
    22    10    11   ar
    23    11    12    1
    24    12    13   ar
    25    13    14   ar
    26    14    15   ar
    27    15    16    1
    28    15    17   ar
    29    11     6   ar
    30    17    12   ar
    31     5     1   ar
    32    26    22   ar
    33    30    23    1
    34    20    21    1
@<TRIPOS>MOLECULE
*****
 30 34 0 0 0
SMALL
GASTEIGER

@<TRIPOS>ATOM
      1 C         142.1746  138.1592  160.2218 C.ar    1  UNL1        0.1074
      2 C         141.2480  138.8167  159.2425 C.ar    1  UNL1        0.0588
      3 S         141.5733  138.2945  157.8744 S.2     1  UNL1       -0.0508
      4 C         142.7008  137.3144  158.0083 C.ar    1  UNL1        0.1646
      5 N         143.0724  137.2308  159.4591 N.ar    1  UNL1       -0.2224
      6 C         143.1661  139.6288  163.7725 C.ar    1  UNL1        0.2416
      7 N         143.1417  139.3982  162.2905 N.ar    1  UNL1       -0.2089
      8 C         142.1990  138.3898  161.7038 C.ar    1  UNL1        0.1026
      9 C         141.2806  137.6118  162.5991 C.ar    1  UNL1        0.0224
     10 C         141.3050  137.8423  164.0811 C.ar    1  UNL1        0.0239
     11 C         142.2478  138.8508  164.6678 C.ar    1  UNL1        0.1189
     12 N         142.2722  139.0814  166.1498 N.ar    1  UNL1       -0.2826
     13 C         143.3324  138.6063  167.0986 C.ar    1  UNL1        0.1826
     14 N         142.9561  139.0588  168.4783 N.ar    1  UNL1       -0.2280
     15 C         141.6634  139.8135  168.3822 C.ar    1  UNL1        0.0786
     16 C         140.9232  140.4436  169.5247 C.3     1  UNL1        0.0538
     17 C         141.2407  139.8274  166.9431 C.ar    1  UNL1        0.0963
     18 C         145.3388  141.0431  163.6026 C.3     1  UNL1        0.2543
     19 O         144.1089  140.6373  164.3592 O.3     1  UNL1       -0.4551
     20 N         143.3438  136.5517  156.8881 N.pl3   1  UNL1       -0.2786
     21 H         144.1029  136.9430  156.3983 H       1  UNL1        0.1555
     22 C         142.8302  135.1929  156.5141 C.ar    1  UNL1        0.1276
     23 C         143.4151  133.8802  156.9440 C.ar    1  UNL1        0.0244
     24 C         142.5879  132.7842  156.3402 C.ar    1  UNL1        0.0773
     25 N         141.4918  133.4195  155.5372 N.ar    1  UNL1       -0.1728
     26 N         141.6415  134.9081  155.6446 N.ar    1  UNL1       -0.2362
     27 C         140.7578  135.9322  154.9965 C.3     1  UNL1        0.1551
     28 C         143.1728  131.4715  156.7701 C.3     1  UNL1        0.0477
     29 C         144.3615  131.7563  157.6396 C.3     1  UNL1        0.0112
     30 C         144.5112  133.2449  157.7470 C.3     1  UNL1        0.0308
@<TRIPOS>BOND
     1    18    19    1
     2    19     6    1
     3     6     7   ar
     4     7     8   ar
     5     8     1    1
     6     1     2   ar
     7     2     3   ar
     8     3     4   ar
     9     4    20    1
    10    20    22    1
    11    22    23   ar
    12    23    24   ar
    13    24    25   ar
    14    25    26   ar
    15    26    27    1
    16    24    28    1
    17    28    29    1
    18    29    30    1
    19     4     5   ar
    20     8     9   ar
    21     9    10   ar
    22    10    11   ar
    23    11    12    1
    24    12    13   ar
    25    13    14   ar
    26    14    15   ar
    27    15    16    1
    28    15    17   ar
    29    11     6   ar
    30    17    12   ar
    31     5     1   ar
    32    26    22   ar
    33    30    23    1
    34    20    21    1
@<TRIPOS>MOLECULE
*****
 30 34 0 0 0
SMALL
GASTEIGER

@<TRIPOS>ATOM
      1 C         140.8436  138.4637  160.1894 C.ar    1  UNL1        0.1074
      2 C         139.9644  138.6630  158.9905 C.ar    1  UNL1        0.0588
      3 S         140.7840  138.3902  157.7642 S.2     1  UNL1       -0.0508
      4 C         142.1697  138.0223  158.2052 C.ar    1  UNL1        0.1646
      5 N         142.2065  138.0678  159.7040 N.ar    1  UNL1       -0.2224
      6 C         139.2257  140.0003  163.4713 C.ar    1  UNL1        0.2416
      7 N         139.6372  139.8330  162.0386 N.ar    1  UNL1       -0.2089
      8 C         140.4320  138.6310  161.6220 C.ar    1  UNL1        0.1026
      9 C         140.8153  137.5963  162.6383 C.ar    1  UNL1        0.0224
     10 C         140.4038  137.7636  164.0710 C.ar    1  UNL1        0.0239
     11 C         139.6090  138.9656  164.4875 C.ar    1  UNL1        0.1189
     12 N         139.1975  139.1329  165.9202 N.ar    1  UNL1       -0.2826
     13 C         137.9941  138.5164  166.5696 C.ar    1  UNL1        0.1826
     14 N         137.9700  138.9486  168.0058 N.ar    1  UNL1       -0.2280
     15 C         139.1585  139.8322  168.2440 C.ar    1  UNL1        0.0786
     16 C         139.5242  140.4870  169.5431 C.3     1  UNL1        0.0538
     17 C         139.9171  139.9461  166.9551 C.ar    1  UNL1        0.0963
     18 C         137.3668  141.7483  162.9826 C.3     1  UNL1        0.2543
     19 O         138.4309  141.2023  163.8879 O.3     1  UNL1       -0.4551
     20 N         143.3172  137.6707  157.3053 N.pl3   1  UNL1       -0.2786
     21 H         144.1580  138.1800  157.3580 H       1  UNL1        0.1555
     22 C         143.1834  136.5432  156.3251 C.ar    1  UNL1        0.1276
     23 C         143.3101  135.0820  156.6394 C.ar    1  UNL1        0.0244
     24 C         143.1045  134.3146  155.3671 C.ar    1  UNL1        0.0773
     25 N         142.8506  135.3015  154.2664 N.ar    1  UNL1       -0.1728
     26 N         142.8994  136.6789  154.8584 N.ar    1  UNL1       -0.2362
     27 C         142.6993  137.9659  154.1145 C.3     1  UNL1        0.1551
     28 C         143.2312  132.8534  155.6814 C.3     1  UNL1        0.0477
     29 C         143.5152  132.7177  157.1480 C.3     1  UNL1        0.0112
     30 C         143.5639  134.0950  157.7401 C.3     1  UNL1        0.0308
@<TRIPOS>BOND
     1    18    19    1
     2    19     6    1
     3     6     7   ar
     4     7     8   ar
     5     8     1    1
     6     1     2   ar
     7     2     3   ar
     8     3     4   ar
     9     4    20    1
    10    20    22    1
    11    22    23   ar
    12    23    24   ar
    13    24    25   ar
    14    25    26   ar
    15    26    27    1
    16    24    28    1
    17    28    29    1
    18    29    30    1
    19     4     5   ar
    20     8     9   ar
    21     9    10   ar
    22    10    11   ar
    23    11    12    1
    24    12    13   ar
    25    13    14   ar
    26    14    15   ar
    27    15    16    1
    28    15    17   ar
    29    11     6   ar
    30    17    12   ar
    31     5     1   ar
    32    26    22   ar
    33    30    23    1
    34    20    21    1
@<TRIPOS>MOLECULE
*****
 30 34 0 0 0
SMALL
GASTEIGER

@<TRIPOS>ATOM
      1 C         141.2098  145.3767  157.4310 C.ar    1  UNL1        0.1074
      2 C         141.5750  145.4316  155.9771 C.ar    1  UNL1        0.0588
      3 S         140.6056  146.3470  155.2900 S.2     1  UNL1       -0.0508
      4 C         139.6413  146.8580  156.3191 C.ar    1  UNL1        0.1646
      5 N         140.0148  146.2583  157.6423 N.ar    1  UNL1       -0.2224
      6 C         142.2861  143.9937  160.9916 C.ar    1  UNL1        0.2416
      7 N         141.5802  144.7902  159.9347 N.ar    1  UNL1       -0.2089
      8 C         141.9157  144.5802  158.4879 C.ar    1  UNL1        0.1026
      9 C         142.9573  143.5735  158.0980 C.ar    1  UNL1        0.0224
     10 C         143.6632  142.7770  159.1549 C.ar    1  UNL1        0.0239
     11 C         143.3277  142.9870  160.6018 C.ar    1  UNL1        0.1189
     12 N         144.0336  142.1905  161.6587 N.ar    1  UNL1       -0.2826
     13 C         145.4387  142.4091  162.1362 C.ar    1  UNL1        0.1826
     14 N         145.7319  141.3891  163.1963 N.ar    1  UNL1       -0.2280
     15 C         144.5080  140.5402  163.3739 C.ar    1  UNL1        0.0786
     16 C         144.3598  139.3967  164.3334 C.3     1  UNL1        0.0538
     17 C         143.4585  141.0354  162.4236 C.ar    1  UNL1        0.0963
     18 C         142.8519  145.0327  163.3046 C.3     1  UNL1        0.2543
     19 O         141.9506  144.2037  162.4385 O.3     1  UNL1       -0.4551
     20 N         138.5034  147.8028  156.0690 N.pl3   1  UNL1       -0.2786
     21 H         137.5951  147.4519  155.9239 H       1  UNL1        0.1555
     22 C         138.7495  149.2822  156.0398 C.ar    1  UNL1        0.1276
     23 C         139.2713  150.0663  154.8724 C.ar    1  UNL1        0.0244
     24 C         139.3613  151.5060  155.2840 C.ar    1  UNL1        0.0773
     25 N         138.8951  151.6116  156.7058 N.ar    1  UNL1       -0.1728
     26 N         138.5170  150.2372  157.1730 N.ar    1  UNL1       -0.2362
     27 C         137.9976  149.8805  158.5341 C.3     1  UNL1        0.1551
     28 C         139.8831  152.2901  154.1166 C.3     1  UNL1        0.0477
     29 C         140.1155  151.3351  152.9835 C.3     1  UNL1        0.0112
     30 C         139.7375  149.9607  153.4506 C.3     1  UNL1        0.0308
@<TRIPOS>BOND
     1    18    19    1
     2    19     6    1
     3     6     7   ar
     4     7     8   ar
     5     8     1    1
     6     1     2   ar
     7     2     3   ar
     8     3     4   ar
     9     4    20    1
    10    20    22    1
    11    22    23   ar
    12    23    24   ar
    13    24    25   ar
    14    25    26   ar
    15    26    27    1
    16    24    28    1
    17    28    29    1
    18    29    30    1
    19     4     5   ar
    20     8     9   ar
    21     9    10   ar
    22    10    11   ar
    23    11    12    1
    24    12    13   ar
    25    13    14   ar
    26    14    15   ar
    27    15    16    1
    28    15    17   ar
    29    11     6   ar
    30    17    12   ar
    31     5     1   ar
    32    26    22   ar
    33    30    23    1
    34    20    21    1
@<TRIPOS>MOLECULE
*****
 30 34 0 0 0
SMALL
GASTEIGER

@<TRIPOS>ATOM
      1 C         141.0158  145.4925  158.4190 C.ar    1  UNL1        0.1074
      2 C         141.7121  145.2710  157.1091 C.ar    1  UNL1        0.0588
      3 S         140.9162  145.9577  156.0391 S.2     1  UNL1       -0.0508
      4 C         139.7279  146.6036  156.6878 C.ar    1  UNL1        0.1646
      5 N         139.7895  146.3161  158.1586 N.ar    1  UNL1       -0.2224
      6 C         143.0734  143.5162  161.1777 C.ar    1  UNL1        0.2416
      7 N         142.6226  144.0284  159.8419 N.ar    1  UNL1       -0.2089
      8 C         141.4666  144.9803  159.7548 C.ar    1  UNL1        0.1026
      9 C         140.7614  145.4200  161.0037 C.ar    1  UNL1        0.0224
     10 C         141.2122  144.9078  162.3395 C.ar    1  UNL1        0.0239
     11 C         142.3682  143.9559  162.4265 C.ar    1  UNL1        0.1189
     12 N         142.8190  143.4437  163.7623 N.ar    1  UNL1       -0.2826
     13 C         143.9890  143.9511  164.5520 C.ar    1  UNL1        0.1826
     14 N         144.0721  143.1551  165.8207 N.ar    1  UNL1       -0.2280
     15 C         142.9534  142.1559  165.8151 C.ar    1  UNL1        0.0786
     16 C         142.6606  141.1541  166.8925 C.3     1  UNL1        0.0538
     17 C         142.1790  142.3342  164.5430 C.ar    1  UNL1        0.0963
     18 C         144.0219  141.1051  160.9866 C.3     1  UNL1        0.2543
     19 O         144.2295  142.5643  161.2648 O.3     1  UNL1       -0.4551
     20 N         138.6647  147.3977  155.9884 N.pl3   1  UNL1       -0.2786
     21 H         137.8649  146.9454  155.6350 H       1  UNL1        0.1555
     22 C         138.8202  148.8809  155.8274 C.ar    1  UNL1        0.1276
     23 C         139.3389  149.5860  154.6093 C.ar    1  UNL1        0.0244
     24 C         139.3236  151.0603  154.8854 C.ar    1  UNL1        0.0773
     25 N         138.7955  151.2664  156.2741 N.ar    1  UNL1       -0.1728
     26 N         138.4844  149.9195  156.8564 N.ar    1  UNL1       -0.2362
     27 C         137.9341  149.6571  158.2269 C.3     1  UNL1        0.1551
     28 C         139.8423  151.7655  153.6673 C.3     1  UNL1        0.0477
     29 C         140.1781  150.7269  152.6384 C.3     1  UNL1        0.0112
     30 C         139.8670  149.3800  153.2206 C.3     1  UNL1        0.0308
@<TRIPOS>BOND
     1    18    19    1
     2    19     6    1
     3     6     7   ar
     4     7     8   ar
     5     8     1    1
     6     1     2   ar
     7     2     3   ar
     8     3     4   ar
     9     4    20    1
    10    20    22    1
    11    22    23   ar
    12    23    24   ar
    13    24    25   ar
    14    25    26   ar
    15    26    27    1
    16    24    28    1
    17    28    29    1
    18    29    30    1
    19     4     5   ar
    20     8     9   ar
    21     9    10   ar
    22    10    11   ar
    23    11    12    1
    24    12    13   ar
    25    13    14   ar
    26    14    15   ar
    27    15    16    1
    28    15    17   ar
    29    11     6   ar
    30    17    12   ar
    31     5     1   ar
    32    26    22   ar
    33    30    23    1
    34    20    21    1
@<TRIPOS>MOLECULE
*****
 30 34 0 0 0
SMALL
GASTEIGER

@<TRIPOS>ATOM
      1 C         142.3688  138.1557  157.2303 C.ar    1  UNL1        0.1074
      2 C         142.9972  138.7485  156.0041 C.ar    1  UNL1        0.0588
      3 S         143.7906  137.6726  155.3236 S.2     1  UNL1       -0.0508
      4 C         143.6525  136.4149  156.1293 C.ar    1  UNL1        0.1646
      5 N         142.7739  136.7135  157.3077 N.ar    1  UNL1       -0.2224
      6 C         140.7022  139.2886  160.6492 C.ar    1  UNL1        0.2416
      7 N         141.5813  138.5660  159.6719 N.ar    1  UNL1       -0.2089
      8 C         141.4898  138.8783  158.2076 C.ar    1  UNL1        0.1026
      9 C         140.5191  139.9131  157.7206 C.ar    1  UNL1        0.0224
     10 C         139.6401  140.6357  158.6979 C.ar    1  UNL1        0.0239
     11 C         139.7316  140.3235  160.1622 C.ar    1  UNL1        0.1189
     12 N         138.8525  141.0461  161.1395 N.ar    1  UNL1       -0.2826
     13 C         137.6790  140.4622  161.8688 C.ar    1  UNL1        0.1826
     14 N         137.0939  141.5347  162.7391 N.ar    1  UNL1       -0.2280
     15 C         137.9058  142.7813  162.5477 C.ar    1  UNL1        0.0786
     16 C         137.6719  144.0987  163.2258 C.3     1  UNL1        0.0538
     17 C         138.9927  142.4793  161.5591 C.ar    1  UNL1        0.0963
     18 C         140.1682  137.7248  162.6540 C.3     1  UNL1        0.2543
     19 O         140.7937  138.9764  162.1135 O.3     1  UNL1       -0.4551
     20 N         144.2826  135.0910  155.8123 N.pl3   1  UNL1       -0.2786
     21 H         145.1967  135.0554  155.4484 H       1  UNL1        0.1555
     22 C         143.5199  133.8214  156.0496 C.ar    1  UNL1        0.1276
     23 C         144.0220  132.6161  156.7879 C.ar    1  UNL1        0.0244
     24 C         142.9335  131.5840  156.7850 C.ar    1  UNL1        0.0773
     25 N         141.7587  132.1514  156.0448 N.ar    1  UNL1       -0.1728
     26 N         142.1210  133.5342  155.5903 N.ar    1  UNL1       -0.2362
     27 C         141.2394  134.4661  154.8131 C.3     1  UNL1        0.1551
     28 C         143.4356  130.3787  157.5233 C.3     1  UNL1        0.0477
     29 C         144.8344  130.6659  157.9825 C.3     1  UNL1        0.0112
     30 C         145.1968  132.0487  157.5281 C.3     1  UNL1        0.0308
@<TRIPOS>BOND
     1    18    19    1
     2    19     6    1
     3     6     7   ar
     4     7     8   ar
     5     8     1    1
     6     1     2   ar
     7     2     3   ar
     8     3     4   ar
     9     4    20    1
    10    20    22    1
    11    22    23   ar
    12    23    24   ar
    13    24    25   ar
    14    25    26   ar
    15    26    27    1
    16    24    28    1
    17    28    29    1
    18    29    30    1
    19     4     5   ar
    20     8     9   ar
    21     9    10   ar
    22    10    11   ar
    23    11    12    1
    24    12    13   ar
    25    13    14   ar
    26    14    15   ar
    27    15    16    1
    28    15    17   ar
    29    11     6   ar
    30    17    12   ar
    31     5     1   ar
    32    26    22   ar
    33    30    23    1
    34    20    21    1
@<TRIPOS>MOLECULE
*****
 30 34 0 0 0
SMALL
GASTEIGER

@<TRIPOS>ATOM
      1 C         140.9899  138.4043  159.9722 C.ar    1  UNL1        0.1074
      2 C         140.2354  138.8704  158.7625 C.ar    1  UNL1        0.0588
      3 S         141.0255  138.4858  157.5469 S.2     1  UNL1       -0.0508
      4 C         142.2683  137.7819  158.0053 C.ar    1  UNL1        0.1646
      5 N         142.2462  137.7316  159.5042 N.ar    1  UNL1       -0.2224
      6 C         138.9149  139.5648  163.1499 C.ar    1  UNL1        0.2416
      7 N         139.3419  139.3891  161.7227 N.ar    1  UNL1       -0.2089
      8 C         140.5629  138.5801  161.3994 C.ar    1  UNL1        0.1026
      9 C         141.3571  137.9469  162.5033 C.ar    1  UNL1        0.0224
     10 C         140.9301  138.1226  163.9304 C.ar    1  UNL1        0.0239
     11 C         139.7091  138.9316  164.2538 C.ar    1  UNL1        0.1189
     12 N         139.2821  139.1074  165.6809 N.ar    1  UNL1       -0.2826
     13 C         138.0973  138.4586  166.3330 C.ar    1  UNL1        0.1826
     14 N         138.0480  138.9130  167.7617 N.ar    1  UNL1       -0.2280
     15 C         139.2023  139.8427  167.9925 C.ar    1  UNL1        0.0786
     16 C         139.5354  140.5314  169.2828 C.3     1  UNL1        0.0538
     17 C         139.9650  139.9628  166.7066 C.ar    1  UNL1        0.0963
     18 C         137.8215  141.8387  163.7695 C.3     1  UNL1        0.2543
     19 O         137.6938  140.3738  163.4733 O.3     1  UNL1       -0.4551
     20 N         143.3442  137.2260  157.1202 N.pl3   1  UNL1       -0.2786
     21 H         144.2468  137.6189  157.1364 H       1  UNL1        0.1555
     22 C         143.0449  136.0716  156.2104 C.ar    1  UNL1        0.1276
     23 C         142.5533  136.1677  154.7965 C.ar    1  UNL1        0.0244
     24 C         142.3892  134.7738  154.2670 C.ar    1  UNL1        0.0773
     25 N         142.7793  133.8163  155.3537 N.ar    1  UNL1       -0.1728
     26 N         143.1846  134.6183  156.5549 N.ar    1  UNL1       -0.2362
     27 C         143.6480  134.0644  157.8694 C.3     1  UNL1        0.1551
     28 C         141.8977  134.8699  152.8531 C.3     1  UNL1        0.0477
     29 C         141.7580  136.3231  152.5087 C.3     1  UNL1        0.0112
     30 C         142.1632  137.1252  153.7098 C.3     1  UNL1        0.0308
@<TRIPOS>BOND
     1    18    19    1
     2    19     6    1
     3     6     7   ar
     4     7     8   ar
     5     8     1    1
     6     1     2   ar
     7     2     3   ar
     8     3     4   ar
     9     4    20    1
    10    20    22    1
    11    22    23   ar
    12    23    24   ar
    13    24    25   ar
    14    25    26   ar
    15    26    27    1
    16    24    28    1
    17    28    29    1
    18    29    30    1
    19     4     5   ar
    20     8     9   ar
    21     9    10   ar
    22    10    11   ar
    23    11    12    1
    24    12    13   ar
    25    13    14   ar
    26    14    15   ar
    27    15    16    1
    28    15    17   ar
    29    11     6   ar
    30    17    12   ar
    31     5     1   ar
    32    26    22   ar
    33    30    23    1
    34    20    21    1
@<TRIPOS>MOLECULE
*****
 30 34 0 0 0
SMALL
GASTEIGER

@<TRIPOS>ATOM
      1 C         142.1062  138.1809  160.0224 C.ar    1  UNL1        0.1074
      2 C         140.9597  138.5244  159.1182 C.ar    1  UNL1        0.0588
      3 S         141.3387  138.1339  157.7204 S.2     1  UNL1       -0.0508
      4 C         142.7194  137.5490  157.7607 C.ar    1  UNL1        0.1646
      5 N         143.1937  137.5781  159.1834 N.ar    1  UNL1       -0.2224
      6 C         141.2904  137.8518  163.8923 C.ar    1  UNL1        0.2416
      7 N         141.2402  137.6313  162.4094 N.ar    1  UNL1       -0.2089
      8 C         142.1563  138.4014  161.5052 C.ar    1  UNL1        0.1026
      9 C         143.1226  139.3922  162.0839 C.ar    1  UNL1        0.0224
     10 C         143.1728  139.6128  163.5667 C.ar    1  UNL1        0.0239
     11 C         142.2567  138.8426  164.4709 C.ar    1  UNL1        0.1189
     12 N         142.3068  139.0632  165.9538 N.ar    1  UNL1       -0.2826
     13 C         143.3496  138.5283  166.8899 C.ar    1  UNL1        0.1826
     14 N         143.0103  138.9919  168.2755 N.ar    1  UNL1       -0.2280
     15 C         141.7577  139.8133  168.1957 C.ar    1  UNL1        0.0786
     16 C         141.0620  140.4746  169.3484 C.3     1  UNL1        0.0538
     17 C         141.3230  139.8573  166.7608 C.ar    1  UNL1        0.0963
     18 C         138.9607  137.5406  164.9993 C.3     1  UNL1        0.2543
     19 O         140.3743  137.0817  164.7965 O.3     1  UNL1       -0.4551
     20 N         143.4904  137.0268  156.5847 N.pl3   1  UNL1       -0.2786
     21 H         144.2758  137.5192  156.2531 H       1  UNL1        0.1555
     22 C         143.0647  135.7544  155.9140 C.ar    1  UNL1        0.1276
     23 C         142.4892  135.6350  154.5340 C.ar    1  UNL1        0.0244
     24 C         142.2086  134.1848  154.2726 C.ar    1  UNL1        0.0773
     25 N         142.6107  133.4080  155.4911 N.ar    1  UNL1       -0.1728
     26 N         143.1398  134.3780  156.5056 N.ar    1  UNL1       -0.2362
     27 C         143.6536  134.0324  157.8717 C.3     1  UNL1        0.1551
     28 C         141.6331  134.0654  152.8925 C.3     1  UNL1        0.0477
     29 C         141.5581  135.4418  152.3010 C.3     1  UNL1        0.0112
     30 C         142.0872  136.4119  153.3154 C.3     1  UNL1        0.0308
@<TRIPOS>BOND
     1    18    19    1
     2    19     6    1
     3     6     7   ar
     4     7     8   ar
     5     8     1    1
     6     1     2   ar
     7     2     3   ar
     8     3     4   ar
     9     4    20    1
    10    20    22    1
    11    22    23   ar
    12    23    24   ar
    13    24    25   ar
    14    25    26   ar
    15    26    27    1
    16    24    28    1
    17    28    29    1
    18    29    30    1
    19     4     5   ar
    20     8     9   ar
    21     9    10   ar
    22    10    11   ar
    23    11    12    1
    24    12    13   ar
    25    13    14   ar
    26    14    15   ar
    27    15    16    1
    28    15    17   ar
    29    11     6   ar
    30    17    12   ar
    31     5     1   ar
    32    26    22   ar
    33    30    23    1
    34    20    21    1
