@<TRIPOS>MOLECULE
*****
 42 48 0 0 0
SMALL
GASTEIGER

@<TRIPOS>ATOM
      1 C         140.1598  138.1653  161.9897 C.ar    1  UNL1        0.1390
      2 C         139.5503  138.2870  160.6245 C.ar    1  UNL1        0.0369
      3 C         140.3505  138.8639  159.4946 C.ar    1  UNL1        0.0037
      4 C         141.7603  139.3191  159.7298 C.ar    1  UNL1        0.0091
      5 C         142.3698  139.1974  161.0950 C.ar    1  UNL1        0.0325
      6 S         143.7259  139.5587  161.6246 S.2     1  UNL1       -0.0868
      7 C         143.7637  139.2052  163.0818 C.ar    1  UNL1        0.0296
      8 C         144.8395  139.3364  164.1188 C.ar    1  UNL1        0.0065
      9 C         144.5826  138.8876  165.5269 C.ar    1  UNL1        0.0005
     10 C         143.2500  138.3077  165.8979 C.ar    1  UNL1        0.0000
     11 C         142.1742  138.1766  164.8609 C.ar    1  UNL1        0.0006
     12 C         142.4310  138.6253  163.4529 C.ar    1  UNL1        0.0094
     13 C         141.5696  138.6205  162.2249 C.ar    1  UNL1        0.0404
     14 C         142.5605  139.8960  158.5998 C.ar    1  UNL1        0.0352
     15 C         142.8749  141.3625  158.5756 C.ar    1  UNL1        0.0031
     16 C         143.6750  141.9395  157.4457 C.ar    1  UNL1        0.0003
     17 C         144.1609  141.0499  156.3400 C.ar    1  UNL1        0.0062
     18 C         143.8466  139.5834  156.3642 C.ar    1  UNL1        0.0736
     19 C         144.3325  138.6939  155.2585 C.ar    1  UNL1        0.2030
     20 O         145.1327  139.2708  154.1285 O.2     1  UNL1       -0.2863
     21 C         144.0182  137.2274  155.2827 C.ar    1  UNL1        0.0955
     22 C         143.2179  136.6504  156.4127 C.ar    1  UNL1        0.2024
     23 O         142.7320  137.5400  157.5184 O.2     1  UNL1       -0.4398
     24 C         143.0463  139.0065  157.4942 C.ar    1  UNL1        0.1498
     25 N         142.9036  135.1839  156.4369 N.pl3   1  UNL1       -0.2742
     26 C         141.8344  134.6312  155.5419 C.3     1  UNL1        0.1257
     27 C         141.5201  133.1647  155.5661 C.3     1  UNL1        0.1637
     28 O         142.2749  132.2510  156.4854 O.3     1  UNL1       -0.3501
     29 C         143.3441  132.8037  157.3806 C.3     1  UNL1        0.1637
     30 C         143.6584  134.2702  157.3563 C.3     1  UNL1        0.1257
     31 O         139.3595  137.5883  163.1197 O.3     1  UNL1       -0.4739
     32 C         138.7889  138.4918  164.1725 C.3     1  UNL1        0.2226
     33 C         137.8518  139.5970  163.7846 C.3     1  UNL1        0.1201
     34 C         141.3500  145.4711  163.0725 C.3     1  UNL1        0.0948
     35 C         140.0035  145.0611  162.5540 C.2     1  UNL1        0.2262
     36 O         139.1949  146.0170  161.7280 O.2     1  UNL1       -0.2749
     37 N         139.4656  143.6951  162.8617 N.am    1  UNL1       -0.2767
     38 C         140.2742  142.7391  163.6878 C.3     1  UNL1        0.1107
     39 C         139.7363  141.3731  163.9954 C.3     1  UNL1        0.0940
     40 N         138.3897  140.9630  163.4770 N.3     1  UNL1       -0.2666
     41 C         137.5812  141.9189  162.6509 C.3     1  UNL1        0.0940
     42 C         138.1191  143.2849  162.3432 C.3     1  UNL1        0.1107
@<TRIPOS>BOND
     1    34    35    1
     2    35    36    2
     3    35    37   am
     4    37    38    1
     5    38    39    1
     6    39    40    1
     7    40    33    1
     8    33    32    1
     9    32    31    1
    10    31     1    1
    11     1     2   ar
    12     2     3   ar
    13     3     4   ar
    14     4    14    1
    15    14    15   ar
    16    15    16   ar
    17    16    17   ar
    18    17    18   ar
    19    18    19   ar
    20    19    20    2
    21    19    21   ar
    22    21    22   ar
    23    22    25    1
    24    25    26    1
    25    26    27    1
    26    27    28    1
    27    28    29    1
    28    29    30    1
    29    22    23   ar
    30    23    24   ar
    31     4     5   ar
    32     5     6   ar
    33     6     7   ar
    34     7     8   ar
    35     8     9   ar
    36     9    10   ar
    37    10    11   ar
    38    11    12   ar
    39    12    13   ar
    40    40    41    1
    41    41    42    1
    42    42    37    1
    43    13     1   ar
    44    24    14   ar
    45    13     5   ar
    46    24    18   ar
    47    12     7   ar
    48    30    25    1
@<TRIPOS>MOLECULE
*****
 42 48 0 0 0
SMALL
GASTEIGER

@<TRIPOS>ATOM
      1 C         143.4813  143.9197  164.5261 C.ar    1  UNL1        0.1390
      2 C         144.1439  143.1772  165.6486 C.ar    1  UNL1        0.0369
      3 C         143.3100  142.4673  166.6736 C.ar    1  UNL1        0.0037
      4 C         141.8136  142.4998  166.5761 C.ar    1  UNL1        0.0091
      5 C         141.1510  143.2423  165.4537 C.ar    1  UNL1        0.0325
      6 S         139.7078  143.4485  165.1007 S.2     1  UNL1       -0.0868
      7 C         139.6497  144.2858  163.8575 C.ar    1  UNL1        0.0296
      8 C         138.4972  144.8049  163.0500 C.ar    1  UNL1        0.0065
      9 C         138.7520  145.6354  161.8272 C.ar    1  UNL1        0.0005
     10 C         140.1594  145.9468  161.4119 C.ar    1  UNL1        0.0000
     11 C         141.3119  145.4276  162.2194 C.ar    1  UNL1        0.0006
     12 C         141.0571  144.5971  163.4422 C.ar    1  UNL1        0.0094
     13 C         141.9849  143.9522  164.4287 C.ar    1  UNL1        0.0404
     14 C         140.9797  141.7899  167.6011 C.ar    1  UNL1        0.0352
     15 C         141.1958  142.0590  169.0610 C.ar    1  UNL1        0.0031
     16 C         140.3620  141.3491  170.0860 C.ar    1  UNL1        0.0003
     17 C         139.3120  140.3701  169.6513 C.ar    1  UNL1        0.0062
     18 C         139.0958  140.1010  168.1915 C.ar    1  UNL1        0.0736
     19 C         138.0457  139.1220  167.7568 C.ar    1  UNL1        0.2030
     20 O         137.2119  138.4121  168.7818 O.2     1  UNL1       -0.2863
     21 C         137.8296  138.8530  166.2971 C.ar    1  UNL1        0.0955
     22 C         138.6635  139.5629  165.2720 C.ar    1  UNL1        0.2024
     23 O         139.7135  140.5419  165.7067 O.2     1  UNL1       -0.4398
     24 C         139.9297  140.8110  167.1664 C.ar    1  UNL1        0.1498
     25 N         138.4473  139.2938  163.8123 N.pl3   1  UNL1       -0.2742
     26 C         137.8503  140.3536  162.9346 C.3     1  UNL1        0.1257
     27 C         137.6341  140.0846  161.4749 C.3     1  UNL1        0.1637
     28 O         138.0149  138.7557  160.8928 O.3     1  UNL1       -0.3501
     29 C         138.6119  137.6958  161.7704 C.3     1  UNL1        0.1637
     30 C         138.8281  137.9649  163.2301 C.3     1  UNL1        0.1257
     31 O         144.3153  144.6296  163.5011 O.3     1  UNL1       -0.4739
     32 C         144.4109  144.0874  162.1058 C.3     1  UNL1        0.2226
     33 C         144.8936  142.6856  161.8775 C.3     1  UNL1        0.1201
     34 C         144.0146  137.6480  166.4708 C.3     1  UNL1        0.0948
     35 C         143.0606  138.2564  165.4861 C.2     1  UNL1        0.2262
     36 O         141.6484  137.7576  165.4035 O.2     1  UNL1       -0.2749
     37 N         143.5188  139.3637  164.5840 N.am    1  UNL1       -0.2767
     38 C         144.9311  139.8625  164.6665 C.3     1  UNL1        0.1107
     39 C         145.3893  140.9698  163.7644 C.3     1  UNL1        0.0940
     40 N         144.4353  141.5783  162.7796 N.3     1  UNL1       -0.2666
     41 C         143.0231  141.0795  162.6970 C.3     1  UNL1        0.0940
     42 C         142.5648  139.9722  163.5992 C.3     1  UNL1        0.1107
@<TRIPOS>BOND
     1    34    35    1
     2    35    36    2
     3    35    37   am
     4    37    38    1
     5    38    39    1
     6    39    40    1
     7    40    33    1
     8    33    32    1
     9    32    31    1
    10    31     1    1
    11     1     2   ar
    12     2     3   ar
    13     3     4   ar
    14     4    14    1
    15    14    15   ar
    16    15    16   ar
    17    16    17   ar
    18    17    18   ar
    19    18    19   ar
    20    19    20    2
    21    19    21   ar
    22    21    22   ar
    23    22    25    1
    24    25    26    1
    25    26    27    1
    26    27    28    1
    27    28    29    1
    28    29    30    1
    29    22    23   ar
    30    23    24   ar
    31     4     5   ar
    32     5     6   ar
    33     6     7   ar
    34     7     8   ar
    35     8     9   ar
    36     9    10   ar
    37    10    11   ar
    38    11    12   ar
    39    12    13   ar
    40    40    41    1
    41    41    42    1
    42    42    37    1
    43    13     1   ar
    44    24    14   ar
    45    13     5   ar
    46    24    18   ar
    47    12     7   ar
    48    30    25    1
@<TRIPOS>MOLECULE
*****
 42 48 0 0 0
SMALL
GASTEIGER

@<TRIPOS>ATOM
      1 C         143.3469  139.0171  161.3414 C.ar    1  UNL1        0.1390
      2 C         143.9208  139.3339  159.9922 C.ar    1  UNL1        0.0369
      3 C         143.0405  139.3082  158.7779 C.ar    1  UNL1        0.0037
      4 C         141.5864  138.9655  158.9128 C.ar    1  UNL1        0.0091
      5 C         141.0126  138.6487  160.2620 C.ar    1  UNL1        0.0325
      6 S         139.6271  138.2786  160.7017 S.2     1  UNL1       -0.0868
      7 C         139.6510  138.0756  162.1877 C.ar    1  UNL1        0.0296
      8 C         138.5786  137.6996  163.1668 C.ar    1  UNL1        0.0065
      9 C         138.9066  137.5683  164.6246 C.ar    1  UNL1        0.0005
     10 C         140.3069  137.8130  165.1033 C.ar    1  UNL1        0.0000
     11 C         141.3793  138.1890  164.1243 C.ar    1  UNL1        0.0006
     12 C         141.0513  138.3203  162.6665 C.ar    1  UNL1        0.0094
     13 C         141.8928  138.6744  161.4763 C.ar    1  UNL1        0.0404
     14 C         140.7062  138.9397  157.6985 C.ar    1  UNL1        0.0352
     15 C         139.7467  140.0643  157.4437 C.ar    1  UNL1        0.0031
     16 C         138.8665  140.0386  156.2295 C.ar    1  UNL1        0.0003
     17 C         138.9457  138.8883  155.2700 C.ar    1  UNL1        0.0062
     18 C         139.9051  137.7638  155.5247 C.ar    1  UNL1        0.0736
     19 C         139.9844  136.6135  154.5652 C.ar    1  UNL1        0.2030
     20 O         139.1041  136.5878  153.3509 O.2     1  UNL1       -0.2863
     21 C         140.9438  135.4891  154.8200 C.ar    1  UNL1        0.0955
     22 C         141.8241  135.5148  156.0344 C.ar    1  UNL1        0.2024
     23 O         141.7449  136.6651  156.9939 O.2     1  UNL1       -0.4398
     24 C         140.7854  137.7895  156.7391 C.ar    1  UNL1        0.1498
     25 N         142.7836  134.3903  156.2891 N.pl3   1  UNL1       -0.2742
     26 C         143.0092  133.3442  155.2381 C.3     1  UNL1        0.1257
     27 C         143.9686  132.2197  155.4929 C.3     1  UNL1        0.1637
     28 O         144.7025  132.1413  156.7987 O.3     1  UNL1       -0.3501
     29 C         144.4769  133.1874  157.8498 C.3     1  UNL1        0.1637
     30 C         143.5175  134.3119  157.5950 C.3     1  UNL1        0.1257
     31 O         144.2272  139.0429  162.5557 O.3     1  UNL1       -0.4739
     32 C         144.3773  140.3087  163.3465 C.3     1  UNL1        0.2226
     33 C         144.3570  141.6360  162.6481 C.3     1  UNL1        0.1201
     34 C         138.0435  144.3178  163.0922 C.3     1  UNL1        0.0948
     35 C         139.2743  144.8143  162.3933 C.2     1  UNL1        0.2262
     36 O         139.2345  146.1054  161.6307 O.2     1  UNL1       -0.2749
     37 N         140.5450  144.0197  162.4570 N.am    1  UNL1       -0.2767
     38 C         140.5848  142.7286  163.2196 C.3     1  UNL1        0.1107
     39 C         141.8554  141.9341  163.2833 C.3     1  UNL1        0.0940
     40 N         143.0864  142.4306  162.5844 N.3     1  UNL1       -0.2666
     41 C         143.0466  143.7217  161.8218 C.3     1  UNL1        0.0940
     42 C         141.7759  144.5162  161.7581 C.3     1  UNL1        0.1107
@<TRIPOS>BOND
     1    34    35    1
     2    35    36    2
     3    35    37   am
     4    37    38    1
     5    38    39    1
     6    39    40    1
     7    40    33    1
     8    33    32    1
     9    32    31    1
    10    31     1    1
    11     1     2   ar
    12     2     3   ar
    13     3     4   ar
    14     4    14    1
    15    14    15   ar
    16    15    16   ar
    17    16    17   ar
    18    17    18   ar
    19    18    19   ar
    20    19    20    2
    21    19    21   ar
    22    21    22   ar
    23    22    25    1
    24    25    26    1
    25    26    27    1
    26    27    28    1
    27    28    29    1
    28    29    30    1
    29    22    23   ar
    30    23    24   ar
    31     4     5   ar
    32     5     6   ar
    33     6     7   ar
    34     7     8   ar
    35     8     9   ar
    36     9    10   ar
    37    10    11   ar
    38    11    12   ar
    39    12    13   ar
    40    40    41    1
    41    41    42    1
    42    42    37    1
    43    13     1   ar
    44    24    14   ar
    45    13     5   ar
    46    24    18   ar
    47    12     7   ar
    48    30    25    1
@<TRIPOS>MOLECULE
*****
 42 48 0 0 0
SMALL
GASTEIGER

@<TRIPOS>ATOM
      1 C         139.6595  137.9111  163.2246 C.ar    1  UNL1        0.1390
      2 C         138.7402  137.8925  162.0395 C.ar    1  UNL1        0.0369
      3 C         139.2461  138.3122  160.6912 C.ar    1  UNL1        0.0037
      4 C         140.6714  138.7504  160.5280 C.ar    1  UNL1        0.0091
      5 C         141.5907  138.7690  161.7132 C.ar    1  UNL1        0.0325
      6 S         143.0344  139.1495  161.8577 S.2     1  UNL1       -0.0868
      7 C         143.4208  138.9650  163.2953 C.ar    1  UNL1        0.0296
      8 C         144.7141  139.1834  164.0230 C.ar    1  UNL1        0.0065
      9 C         144.8024  138.9073  165.4947 C.ar    1  UNL1        0.0005
     10 C         143.5975  138.4127  166.2387 C.ar    1  UNL1        0.0000
     11 C         142.3042  138.1943  165.5110 C.ar    1  UNL1        0.0006
     12 C         142.2158  138.4704  164.0393 C.ar    1  UNL1        0.0094
     13 C         141.0848  138.3493  163.0615 C.ar    1  UNL1        0.0404
     14 C         141.1773  139.1701  159.1797 C.ar    1  UNL1        0.0352
     15 C         141.4331  138.1392  158.1204 C.ar    1  UNL1        0.0031
     16 C         141.9389  138.5588  156.7721 C.ar    1  UNL1        0.0003
     17 C         142.1891  140.0093  156.4830 C.ar    1  UNL1        0.0062
     18 C         141.9333  141.0401  157.5423 C.ar    1  UNL1        0.0736
     19 C         142.1835  142.4906  157.2532 C.ar    1  UNL1        0.2030
     20 O         142.6894  142.9102  155.9049 O.2     1  UNL1       -0.2863
     21 C         141.9277  143.5214  158.3124 C.ar    1  UNL1        0.0955
     22 C         141.4218  143.1018  159.6608 C.ar    1  UNL1        0.2024
     23 O         141.1716  141.6513  159.9499 O.2     1  UNL1       -0.4398
     24 C         141.4274  140.6205  158.8906 C.ar    1  UNL1        0.1498
     25 N         141.1660  144.1326  160.7200 N.pl3   1  UNL1       -0.2742
     26 C         140.1021  145.1700  160.5156 C.3     1  UNL1        0.1257
     27 C         139.8464  146.2008  161.5748 C.3     1  UNL1        0.1637
     28 O         140.6545  146.1943  162.8384 O.3     1  UNL1       -0.3501
     29 C         141.7184  145.1568  163.0429 C.3     1  UNL1        0.1637
     30 C         141.9741  144.1260  161.9837 C.3     1  UNL1        0.1257
     31 O         139.1536  137.4914  164.5730 O.3     1  UNL1       -0.4739
     32 C         138.4565  138.4846  165.4549 C.3     1  UNL1        0.2226
     33 C         138.9369  139.9045  165.5111 C.3     1  UNL1        0.1201
     34 C         142.7193  143.0274  170.3268 C.3     1  UNL1        0.0948
     35 C         141.6817  141.9499  170.4388 C.2     1  UNL1        0.2262
     36 O         141.3304  141.3838  171.7827 O.2     1  UNL1       -0.2749
     37 N         140.9955  141.4386  169.2069 N.am    1  UNL1       -0.2767
     38 C         141.3469  142.0047  167.8629 C.3     1  UNL1        0.1107
     39 C         140.6607  141.4933  166.6310 C.3     1  UNL1        0.0940
     40 N         139.6231  140.4158  166.7430 N.3     1  UNL1       -0.2666
     41 C         139.2718  139.8497  168.0869 C.3     1  UNL1        0.0940
     42 C         139.9580  140.3610  169.3188 C.3     1  UNL1        0.1107
@<TRIPOS>BOND
     1    34    35    1
     2    35    36    2
     3    35    37   am
     4    37    38    1
     5    38    39    1
     6    39    40    1
     7    40    33    1
     8    33    32    1
     9    32    31    1
    10    31     1    1
    11     1     2   ar
    12     2     3   ar
    13     3     4   ar
    14     4    14    1
    15    14    15   ar
    16    15    16   ar
    17    16    17   ar
    18    17    18   ar
    19    18    19   ar
    20    19    20    2
    21    19    21   ar
    22    21    22   ar
    23    22    25    1
    24    25    26    1
    25    26    27    1
    26    27    28    1
    27    28    29    1
    28    29    30    1
    29    22    23   ar
    30    23    24   ar
    31     4     5   ar
    32     5     6   ar
    33     6     7   ar
    34     7     8   ar
    35     8     9   ar
    36     9    10   ar
    37    10    11   ar
    38    11    12   ar
    39    12    13   ar
    40    40    41    1
    41    41    42    1
    42    42    37    1
    43    13     1   ar
    44    24    14   ar
    45    13     5   ar
    46    24    18   ar
    47    12     7   ar
    48    30    25    1
@<TRIPOS>MOLECULE
*****
 42 48 0 0 0
SMALL
GASTEIGER

@<TRIPOS>ATOM
      1 C         140.9492  145.1374  160.6203 C.ar    1  UNL1        0.1390
      2 C         140.3931  144.9901  159.2350 C.ar    1  UNL1        0.0369
      3 C         140.9909  143.9911  158.2891 C.ar    1  UNL1        0.0037
      4 C         142.1448  143.1394  158.7286 C.ar    1  UNL1        0.0091
      5 C         142.7009  143.2867  160.1139 C.ar    1  UNL1        0.0325
      6 S         143.8246  142.5913  160.8236 S.2     1  UNL1       -0.0868
      7 C         143.9213  143.1605  162.2081 C.ar    1  UNL1        0.0296
      8 C         144.8407  142.8605  163.3546 C.ar    1  UNL1        0.0065
      9 C         144.6961  143.6078  164.6472 C.ar    1  UNL1        0.0005
     10 C         143.6322  144.6550  164.7931 C.ar    1  UNL1        0.0000
     11 C         142.7128  144.9550  163.6465 C.ar    1  UNL1        0.0006
     12 C         142.8574  144.2078  162.3540 C.ar    1  UNL1        0.0094
     13 C         142.1031  144.2858  161.0597 C.ar    1  UNL1        0.0404
     14 C         142.7425  142.1404  157.7828 C.ar    1  UNL1        0.0352
     15 C         143.4905  142.6098  156.5702 C.ar    1  UNL1        0.0031
     16 C         144.0883  141.6109  155.6244 C.ar    1  UNL1        0.0003
     17 C         143.9381  140.1424  155.8910 C.ar    1  UNL1        0.0062
     18 C         143.1901  139.6730  157.1035 C.ar    1  UNL1        0.0736
     19 C         143.0399  138.2045  157.3701 C.ar    1  UNL1        0.2030
     20 O         143.6377  137.2055  156.4243 O.2     1  UNL1       -0.2863
     21 C         142.2919  137.7351  158.5826 C.ar    1  UNL1        0.0955
     22 C         141.6941  138.7341  159.5285 C.ar    1  UNL1        0.2024
     23 O         141.8443  140.2026  159.2619 O.2     1  UNL1       -0.4398
     24 C         142.5923  140.6720  158.0494 C.ar    1  UNL1        0.1498
     25 N         140.9461  138.2646  160.7410 N.pl3   1  UNL1       -0.2742
     26 C         139.4487  138.3437  160.7757 C.3     1  UNL1        0.1257
     27 C         138.7007  137.8743  161.9881 C.3     1  UNL1        0.1637
     28 O         139.4502  137.3258  163.1659 O.3     1  UNL1       -0.3501
     29 C         140.9477  137.2467  163.1313 C.3     1  UNL1        0.1637
     30 C         141.6957  137.7161  161.9189 C.3     1  UNL1        0.1257
     31 O         140.3514  146.1365  161.5661 O.3     1  UNL1       -0.4739
     32 C         139.4157  145.6802  162.6461 C.3     1  UNL1        0.2226
     33 C         138.5964  144.4387  162.4532 C.3     1  UNL1        0.1201
     34 C         138.1721  138.6983  166.2105 C.3     1  UNL1        0.0948
     35 C         138.9958  139.9374  166.4002 C.2     1  UNL1        0.2262
     36 O         139.9195  140.0512  167.5766 O.2     1  UNL1       -0.2749
     37 N         138.8960  141.0627  165.4135 N.am    1  UNL1       -0.2767
     38 C         137.9723  140.9489  164.2370 C.3     1  UNL1        0.1107
     39 C         137.8724  142.0742  163.2503 C.3     1  UNL1        0.0940
     40 N         138.6962  143.3134  163.4399 N.3     1  UNL1       -0.2666
     41 C         139.6199  143.4272  164.6164 C.3     1  UNL1        0.0940
     42 C         139.7198  142.3019  165.6031 C.3     1  UNL1        0.1107
@<TRIPOS>BOND
     1    34    35    1
     2    35    36    2
     3    35    37   am
     4    37    38    1
     5    38    39    1
     6    39    40    1
     7    40    33    1
     8    33    32    1
     9    32    31    1
    10    31     1    1
    11     1     2   ar
    12     2     3   ar
    13     3     4   ar
    14     4    14    1
    15    14    15   ar
    16    15    16   ar
    17    16    17   ar
    18    17    18   ar
    19    18    19   ar
    20    19    20    2
    21    19    21   ar
    22    21    22   ar
    23    22    25    1
    24    25    26    1
    25    26    27    1
    26    27    28    1
    27    28    29    1
    28    29    30    1
    29    22    23   ar
    30    23    24   ar
    31     4     5   ar
    32     5     6   ar
    33     6     7   ar
    34     7     8   ar
    35     8     9   ar
    36     9    10   ar
    37    10    11   ar
    38    11    12   ar
    39    12    13   ar
    40    40    41    1
    41    41    42    1
    42    42    37    1
    43    13     1   ar
    44    24    14   ar
    45    13     5   ar
    46    24    18   ar
    47    12     7   ar
    48    30    25    1
@<TRIPOS>MOLECULE
*****
 42 48 0 0 0
SMALL
GASTEIGER

@<TRIPOS>ATOM
      1 C         143.8845  143.5914  163.8803 C.ar    1  UNL1        0.1390
      2 C         144.6132  142.8847  164.9847 C.ar    1  UNL1        0.0369
      3 C         143.8660  142.4218  166.2001 C.ar    1  UNL1        0.0037
      4 C         142.3901  142.6655  166.3112 C.ar    1  UNL1        0.0091
      5 C         141.6614  143.3722  165.2068 C.ar    1  UNL1        0.0325
      6 S         140.2200  143.7511  165.0370 S.2     1  UNL1       -0.0868
      7 C         140.0764  144.4482  163.7166 C.ar    1  UNL1        0.0296
      8 C         138.8887  145.0423  163.0193 C.ar    1  UNL1        0.0065
      9 C         139.0536  145.6884  161.6757 C.ar    1  UNL1        0.0005
     10 C         140.4063  145.7404  161.0294 C.ar    1  UNL1        0.0000
     11 C         141.5940  145.1463  161.7268 C.ar    1  UNL1        0.0006
     12 C         141.4290  144.5002  163.0704 C.ar    1  UNL1        0.0094
     13 C         142.4086  143.8352  163.9914 C.ar    1  UNL1        0.0404
     14 C         141.6429  142.2026  167.5267 C.ar    1  UNL1        0.0352
     15 C         142.0267  142.7148  168.8833 C.ar    1  UNL1        0.0031
     16 C         141.2795  142.2519  170.0988 C.ar    1  UNL1        0.0003
     17 C         140.1486  141.2767  169.9577 C.ar    1  UNL1        0.0062
     18 C         139.7648  140.7644  168.6011 C.ar    1  UNL1        0.0736
     19 C         138.6339  139.7892  168.4600 C.ar    1  UNL1        0.2030
     20 O         137.8867  139.3262  169.6755 O.2     1  UNL1       -0.2863
     21 C         138.2501  139.2769  167.1035 C.ar    1  UNL1        0.0955
     22 C         138.9973  139.7399  165.8879 C.ar    1  UNL1        0.2024
     23 O         140.1282  140.7151  166.0290 O.2     1  UNL1       -0.4398
     24 C         140.5120  141.2274  167.3856 C.ar    1  UNL1        0.1498
     25 N         138.6135  139.2276  164.5314 N.pl3   1  UNL1       -0.2742
     26 C         138.8215  137.7821  164.1891 C.3     1  UNL1        0.1257
     27 C         138.4377  137.2699  162.8325 C.3     1  UNL1        0.1637
     28 O         137.8460  138.2031  161.8183 O.3     1  UNL1       -0.3501
     29 C         137.6380  139.6486  162.1605 C.3     1  UNL1        0.1637
     30 C         138.0218  140.1609  163.5170 C.3     1  UNL1        0.1257
     31 O         144.6318  144.0544  162.6648 O.3     1  UNL1       -0.4739
     32 C         144.6926  143.1835  161.4450 C.3     1  UNL1        0.2226
     33 C         144.4740  141.7046  161.5677 C.3     1  UNL1        0.1201
     34 C         140.3521  137.9680  157.5308 C.3     1  UNL1        0.0948
     35 C         140.0405  139.0630  158.5074 C.2     1  UNL1        0.2262
     36 O         138.6205  139.4977  158.7189 O.2     1  UNL1       -0.2749
     37 N         141.1489  139.7234  159.2725 N.am    1  UNL1       -0.2767
     38 C         142.5689  139.2887  159.0610 C.3     1  UNL1        0.1107
     39 C         143.6772  139.9491  159.8260 C.3     1  UNL1        0.0940
     40 N         143.3657  141.0443  160.8027 N.3     1  UNL1       -0.2666
     41 C         141.9457  141.4789  161.0142 C.3     1  UNL1        0.0940
     42 C         140.8373  140.8186  160.2491 C.3     1  UNL1        0.1107
@<TRIPOS>BOND
     1    34    35    1
     2    35    36    2
     3    35    37   am
     4    37    38    1
     5    38    39    1
     6    39    40    1
     7    40    33    1
     8    33    32    1
     9    32    31    1
    10    31     1    1
    11     1     2   ar
    12     2     3   ar
    13     3     4   ar
    14     4    14    1
    15    14    15   ar
    16    15    16   ar
    17    16    17   ar
    18    17    18   ar
    19    18    19   ar
    20    19    20    2
    21    19    21   ar
    22    21    22   ar
    23    22    25    1
    24    25    26    1
    25    26    27    1
    26    27    28    1
    27    28    29    1
    28    29    30    1
    29    22    23   ar
    30    23    24   ar
    31     4     5   ar
    32     5     6   ar
    33     6     7   ar
    34     7     8   ar
    35     8     9   ar
    36     9    10   ar
    37    10    11   ar
    38    11    12   ar
    39    12    13   ar
    40    40    41    1
    41    41    42    1
    42    42    37    1
    43    13     1   ar
    44    24    14   ar
    45    13     5   ar
    46    24    18   ar
    47    12     7   ar
    48    30    25    1
@<TRIPOS>MOLECULE
*****
 42 48 0 0 0
SMALL
GASTEIGER

@<TRIPOS>ATOM
      1 C         142.2948  138.2924  162.6655 C.ar    1  UNL1        0.1390
      2 C         143.6151  137.9516  162.0403 C.ar    1  UNL1        0.0369
      3 C         144.0816  138.6924  160.8223 C.ar    1  UNL1        0.0037
      4 C         143.2279  139.7739  160.2295 C.ar    1  UNL1        0.0091
      5 C         141.9077  140.1147  160.8547 C.ar    1  UNL1        0.0325
      6 S         140.8582  141.1246  160.4961 S.2     1  UNL1       -0.0868
      7 C         139.7430  141.0079  161.4925 C.ar    1  UNL1        0.0296
      8 C         138.4460  141.7472  161.6384 C.ar    1  UNL1        0.0065
      9 C         137.5093  141.4044  162.7587 C.ar    1  UNL1        0.0005
     10 C         137.8696  140.3224  163.7331 C.ar    1  UNL1        0.0000
     11 C         139.1666  139.5832  163.5872 C.ar    1  UNL1        0.0006
     12 C         140.1033  139.9259  162.4669 C.ar    1  UNL1        0.0094
     13 C         141.4411  139.3739  162.0727 C.ar    1  UNL1        0.0404
     14 C         143.6945  140.5147  159.0115 C.ar    1  UNL1        0.0352
     15 C         144.1551  141.9374  159.1295 C.ar    1  UNL1        0.0031
     16 C         144.6216  142.6783  157.9116 C.ar    1  UNL1        0.0003
     17 C         144.6276  141.9964  156.5755 C.ar    1  UNL1        0.0062
     18 C         144.1671  140.5738  156.4575 C.ar    1  UNL1        0.0736
     19 C         144.1731  139.8919  155.1214 C.ar    1  UNL1        0.2030
     20 O         144.6396  140.6327  153.9034 O.2     1  UNL1       -0.2863
     21 C         143.7125  138.4693  155.0033 C.ar    1  UNL1        0.0955
     22 C         143.2460  137.7284  156.2214 C.ar    1  UNL1        0.2024
     23 O         143.2400  138.4103  157.5574 O.2     1  UNL1       -0.4398
     24 C         143.7005  139.8329  157.6755 C.ar    1  UNL1        0.1498
     25 N         142.7854  136.3058  156.1033 N.pl3   1  UNL1       -0.2742
     26 C         143.4258  135.2382  156.9400 C.3     1  UNL1        0.1257
     27 C         142.9652  133.8156  156.8220 C.3     1  UNL1        0.1637
     28 O         141.8643  133.4605  155.8672 O.3     1  UNL1       -0.3501
     29 C         141.2239  134.5280  155.0304 C.3     1  UNL1        0.1637
     30 C         141.6844  135.9506  155.1484 C.3     1  UNL1        0.1257
     31 O         141.8283  137.5515  163.8836 O.3     1  UNL1       -0.4739
     32 C         142.2065  138.0414  165.2500 C.3     1  UNL1        0.2226
     33 C         143.3918  138.9446  165.4213 C.3     1  UNL1        0.1201
     34 C         141.9688  145.4596  163.7539 C.3     1  UNL1        0.0948
     35 C         143.1611  144.6043  163.4428 C.2     1  UNL1        0.2262
     36 O         144.2958  145.1640  162.6370 O.2     1  UNL1       -0.2749
     37 N         143.2188  143.1894  163.9374 N.am    1  UNL1       -0.2767
     38 C         142.0841  142.6298  164.7432 C.3     1  UNL1        0.1107
     39 C         142.1417  141.2149  165.2378 C.3     1  UNL1        0.0940
     40 N         143.3341  140.3595  164.9267 N.3     1  UNL1       -0.2666
     41 C         144.4688  140.9192  164.1209 C.3     1  UNL1        0.0940
     42 C         144.4112  142.3341  163.6263 C.3     1  UNL1        0.1107
@<TRIPOS>BOND
     1    34    35    1
     2    35    36    2
     3    35    37   am
     4    37    38    1
     5    38    39    1
     6    39    40    1
     7    40    33    1
     8    33    32    1
     9    32    31    1
    10    31     1    1
    11     1     2   ar
    12     2     3   ar
    13     3     4   ar
    14     4    14    1
    15    14    15   ar
    16    15    16   ar
    17    16    17   ar
    18    17    18   ar
    19    18    19   ar
    20    19    20    2
    21    19    21   ar
    22    21    22   ar
    23    22    25    1
    24    25    26    1
    25    26    27    1
    26    27    28    1
    27    28    29    1
    28    29    30    1
    29    22    23   ar
    30    23    24   ar
    31     4     5   ar
    32     5     6   ar
    33     6     7   ar
    34     7     8   ar
    35     8     9   ar
    36     9    10   ar
    37    10    11   ar
    38    11    12   ar
    39    12    13   ar
    40    40    41    1
    41    41    42    1
    42    42    37    1
    43    13     1   ar
    44    24    14   ar
    45    13     5   ar
    46    24    18   ar
    47    12     7   ar
    48    30    25    1
@<TRIPOS>MOLECULE
*****
 42 48 0 0 0
SMALL
GASTEIGER

@<TRIPOS>ATOM
      1 C         142.2044  138.4264  162.7026 C.ar    1  UNL1        0.1390
      2 C         143.5109  138.0290  162.0821 C.ar    1  UNL1        0.0369
      3 C         143.9670  138.6819  160.8110 C.ar    1  UNL1        0.0037
      4 C         143.1165  139.7323  160.1605 C.ar    1  UNL1        0.0091
      5 C         141.8100  140.1298  160.7810 C.ar    1  UNL1        0.0325
      6 S         140.7665  141.1266  160.3717 S.2     1  UNL1       -0.0868
      7 C         139.6655  141.0897  161.3898 C.ar    1  UNL1        0.0296
      8 C         138.3794  141.8528  161.5053 C.ar    1  UNL1        0.0065
      9 C         137.4562  141.5963  162.6594 C.ar    1  UNL1        0.0005
     10 C         137.8193  140.5766  163.6980 C.ar    1  UNL1        0.0000
     11 C         139.1055  139.8135  163.5824 C.ar    1  UNL1        0.0006
     12 C         140.0286  140.0701  162.4283 C.ar    1  UNL1        0.0094
     13 C         141.3539  139.4768  162.0520 C.ar    1  UNL1        0.0404
     14 C         143.5726  140.3853  158.8894 C.ar    1  UNL1        0.0352
     15 C         143.9756  141.8302  158.8911 C.ar    1  UNL1        0.0031
     16 C         144.4317  142.4832  157.6202 C.ar    1  UNL1        0.0003
     17 C         144.4848  141.6913  156.3473 C.ar    1  UNL1        0.0062
     18 C         144.0818  140.2465  156.3455 C.ar    1  UNL1        0.0736
     19 C         144.1349  139.4546  155.0727 C.ar    1  UNL1        0.2030
     20 O         144.5909  140.1076  153.8016 O.2     1  UNL1       -0.2863
     21 C         143.7319  138.0098  155.0709 C.ar    1  UNL1        0.0955
     22 C         143.2758  137.3568  156.3420 C.ar    1  UNL1        0.2024
     23 O         143.2227  138.1486  157.6148 O.2     1  UNL1       -0.4398
     24 C         143.6257  139.5935  157.6166 C.ar    1  UNL1        0.1498
     25 N         142.8728  135.9119  156.3402 N.pl3   1  UNL1       -0.2742
     26 C         143.5459  134.9444  157.2679 C.3     1  UNL1        0.1257
     27 C         143.1429  133.4996  157.2662 C.3     1  UNL1        0.1637
     28 O         142.0668  133.0223  156.3366 O.3     1  UNL1       -0.3501
     29 C         141.3937  133.9897  155.4088 C.3     1  UNL1        0.1637
     30 C         141.7967  135.4346  155.4106 C.3     1  UNL1        0.1257
     31 O         141.7484  137.7734  163.9738 O.3     1  UNL1       -0.4739
     32 C         142.4690  138.0507  165.2598 C.3     1  UNL1        0.2226
     33 C         143.0379  139.4137  165.5218 C.3     1  UNL1        0.1201
     34 C         140.4177  143.9744  169.9472 C.3     1  UNL1        0.0948
     35 C         141.0673  142.6425  170.1792 C.2     1  UNL1        0.2262
     36 O         141.2243  142.1177  171.5757 O.2     1  UNL1       -0.2749
     37 N         141.5599  141.8353  169.0149 N.am    1  UNL1       -0.2767
     38 C         141.4030  142.3601  167.6184 C.3     1  UNL1        0.1107
     39 C         141.8956  141.5529  166.4541 C.3     1  UNL1        0.0940
     40 N         142.5453  140.2209  166.6861 N.3     1  UNL1       -0.2666
     41 C         142.7022  139.6961  168.0825 C.3     1  UNL1        0.0940
     42 C         142.2096  140.5032  169.2469 C.3     1  UNL1        0.1107
@<TRIPOS>BOND
     1    34    35    1
     2    35    36    2
     3    35    37   am
     4    37    38    1
     5    38    39    1
     6    39    40    1
     7    40    33    1
     8    33    32    1
     9    32    31    1
    10    31     1    1
    11     1     2   ar
    12     2     3   ar
    13     3     4   ar
    14     4    14    1
    15    14    15   ar
    16    15    16   ar
    17    16    17   ar
    18    17    18   ar
    19    18    19   ar
    20    19    20    2
    21    19    21   ar
    22    21    22   ar
    23    22    25    1
    24    25    26    1
    25    26    27    1
    26    27    28    1
    27    28    29    1
    28    29    30    1
    29    22    23   ar
    30    23    24   ar
    31     4     5   ar
    32     5     6   ar
    33     6     7   ar
    34     7     8   ar
    35     8     9   ar
    36     9    10   ar
    37    10    11   ar
    38    11    12   ar
    39    12    13   ar
    40    40    41    1
    41    41    42    1
    42    42    37    1
    43    13     1   ar
    44    24    14   ar
    45    13     5   ar
    46    24    18   ar
    47    12     7   ar
    48    30    25    1
@<TRIPOS>MOLECULE
*****
 42 48 0 0 0
SMALL
GASTEIGER

@<TRIPOS>ATOM
      1 C         142.0612  138.1238  159.0235 C.ar    1  UNL1        0.1390
      2 C         142.7798  137.5397  160.2036 C.ar    1  UNL1        0.0369
      3 C         142.1776  137.6406  161.5737 C.ar    1  UNL1        0.0037
      4 C         140.8567  138.3256  161.7637 C.ar    1  UNL1        0.0091
      5 C         140.1381  138.9096  160.5837 C.ar    1  UNL1        0.0325
      6 S         138.8322  139.6376  160.4634 S.2     1  UNL1       -0.0868
      7 C         138.6273  139.9867  159.0190 C.ar    1  UNL1        0.0296
      8 C         137.5192  140.7048  158.3074 C.ar    1  UNL1        0.0065
      9 C         137.5905  140.9106  156.8233 C.ar    1  UNL1        0.0005
     10 C         138.7698  140.3983  156.0509 C.ar    1  UNL1        0.0000
     11 C         139.8779  139.6802  156.7625 C.ar    1  UNL1        0.0006
     12 C         139.8066  139.4744  158.2466 C.ar    1  UNL1        0.0094
     13 C         140.7404  138.8087  159.2136 C.ar    1  UNL1        0.0404
     14 C         140.2545  138.4265  163.1338 C.ar    1  UNL1        0.0352
     15 C         139.3748  137.3262  163.6493 C.ar    1  UNL1        0.0031
     16 C         138.7726  137.4270  165.0193 C.ar    1  UNL1        0.0003
     17 C         139.0500  138.6282  165.8739 C.ar    1  UNL1        0.0062
     18 C         139.9296  139.7284  165.3585 C.ar    1  UNL1        0.0736
     19 C         140.2070  140.9295  166.2131 C.ar    1  UNL1        0.2030
     20 O         139.6047  141.0304  167.5832 O.2     1  UNL1       -0.2863
     21 C         141.0866  142.0298  165.6976 C.ar    1  UNL1        0.0955
     22 C         141.6889  141.9289  164.3275 C.ar    1  UNL1        0.2024
     23 O         141.4115  140.7278  163.4729 O.2     1  UNL1       -0.4398
     24 C         140.5319  139.6275  163.9883 C.ar    1  UNL1        0.1498
     25 N         142.5685  143.0291  163.8120 N.pl3   1  UNL1       -0.2742
     26 C         143.6620  142.7189  162.8334 C.3     1  UNL1        0.1257
     27 C         144.5417  143.8191  162.3180 C.3     1  UNL1        0.1637
     28 O         144.3277  145.2296  162.7811 O.3     1  UNL1       -0.3501
     29 C         143.2342  145.5400  163.7598 C.3     1  UNL1        0.1637
     30 C         142.3546  144.4397  164.2753 C.3     1  UNL1        0.1257
     31 O         142.6635  138.0228  157.6534 O.3     1  UNL1       -0.4739
     32 C         142.3853  136.8221  156.7985 C.3     1  UNL1        0.2226
     33 C         143.2789  135.6201  156.8802 C.3     1  UNL1        0.1201
     34 C         140.1717  130.1461  154.1178 C.3     1  UNL1        0.0948
     35 C         141.2393  130.2438  155.1669 C.2     1  UNL1        0.2262
     36 O         141.7970  128.9974  155.7877 O.2     1  UNL1       -0.2749
     37 N         141.7492  131.5878  155.5952 N.am    1  UNL1       -0.2767
     38 C         141.1914  132.8343  154.9744 C.3     1  UNL1        0.1107
     39 C         141.7013  134.1783  155.4027 C.3     1  UNL1        0.0940
     40 N         142.7690  134.2760  156.4519 N.3     1  UNL1       -0.2666
     41 C         143.3268  133.0296  157.0727 C.3     1  UNL1        0.0940
     42 C         142.8169  131.6855  156.6443 C.3     1  UNL1        0.1107
@<TRIPOS>BOND
     1    34    35    1
     2    35    36    2
     3    35    37   am
     4    37    38    1
     5    38    39    1
     6    39    40    1
     7    40    33    1
     8    33    32    1
     9    32    31    1
    10    31     1    1
    11     1     2   ar
    12     2     3   ar
    13     3     4   ar
    14     4    14    1
    15    14    15   ar
    16    15    16   ar
    17    16    17   ar
    18    17    18   ar
    19    18    19   ar
    20    19    20    2
    21    19    21   ar
    22    21    22   ar
    23    22    25    1
    24    25    26    1
    25    26    27    1
    26    27    28    1
    27    28    29    1
    28    29    30    1
    29    22    23   ar
    30    23    24   ar
    31     4     5   ar
    32     5     6   ar
    33     6     7   ar
    34     7     8   ar
    35     8     9   ar
    36     9    10   ar
    37    10    11   ar
    38    11    12   ar
    39    12    13   ar
    40    40    41    1
    41    41    42    1
    42    42    37    1
    43    13     1   ar
    44    24    14   ar
    45    13     5   ar
    46    24    18   ar
    47    12     7   ar
    48    30    25    1
