@<TRIPOS>MOLECULE
*****
 44 48 0 0 0
SMALL
GASTEIGER

@<TRIPOS>ATOM
      1 C         141.4619  142.2119  161.7989 C.3     1  UNL1        0.0765
      2 C         142.9264  142.3152  161.4916 C.3     1  UNL1        0.0246
      3 C         143.3823  142.9825  160.2279 C.3     1  UNL1        0.0277
      4 C         142.3737  143.5464  159.2715 C.ar    1  UNL1       -0.0258
      5 C         142.8297  144.2137  158.0078 C.ar    1  UNL1       -0.0014
      6 C         141.8211  144.7776  157.0514 C.ar    1  UNL1        0.0371
      7 C         140.3565  144.6743  157.3588 C.ar    1  UNL1        0.1450
      8 C         139.9006  144.0070  158.6224 C.ar    1  UNL1        0.0330
      9 C         140.9092  143.4431  159.5788 C.ar    1  UNL1       -0.0215
     10 C         140.4533  142.7759  160.8425 C.3     1  UNL1        0.0457
     11 C         140.8134  142.3539  164.3107 C.2     1  UNL1        0.2458
     12 O         141.0770  143.8305  164.2953 O.2     1  UNL1       -0.2701
     13 N         141.0059  141.5446  163.0626 N.am    1  UNL1       -0.3021
     14 H         140.8329  140.5755  163.0727 H       1  UNL1        0.1497
     15 C         140.2396  141.6229  168.1690 C.ar    1  UNL1       -0.0057
     16 C         140.6956  142.2901  166.9054 C.ar    1  UNL1        0.0016
     17 C         140.3575  141.6867  165.5744 C.ar    1  UNL1        0.0530
     18 C         139.5633  140.4159  165.5071 C.ar    1  UNL1        0.0083
     19 C         139.1073  139.7486  166.7707 C.ar    1  UNL1        0.0713
     20 C         139.4455  140.3521  168.1017 C.ar    1  UNL1        0.0009
     21 N         140.1816  143.6406  169.8047 N.3     1  UNL1       -0.3168
     22 CA        140.5778  142.2263  169.5000 C.3     1  UNL1        0.1033
     23 H1        140.4888  143.8844  170.7463 H       1  UNL1        0.1192
     24 H2        139.1673  143.7300  169.7441 H       1  UNL1        0.1192
     25 C         141.3122  141.4155  170.5263 C.3     1  UNL1        0.1570
     26 O         141.8221  142.0709  171.7754 O.3     1  UNL1       -0.3802
     27 H         142.5158  142.7088  171.5458 H       1  UNL1        0.2105
     28 C         138.3132  138.4779  166.7034 C.3     1  UNL1        0.4186
     29 F         137.5190  137.2072  166.6361 F       1  UNL1       -0.1659
     30 F         137.5382  138.8979  167.9171 F       1  UNL1       -0.1659
     31 F         139.0881  138.0579  165.4897 F       1  UNL1       -0.1659
     32 O         139.3479  145.2382  156.4024 O.3     1  UNL1       -0.4537
     33 C         139.7936  146.1312  155.2825 C.ar    1  UNL1        0.1455
     34 C         140.5546  145.5581  154.1238 C.ar    1  UNL1        0.0579
     35 C         141.0003  146.4511  153.0040 C.ar    1  UNL1        0.1034
     36 N         140.6851  147.9171  153.0429 N.ar    1  UNL1       -0.2291
     37 C         139.9241  148.4901  154.2016 C.ar    1  UNL1        0.1330
     38 C         139.4784  147.5972  155.3214 C.ar    1  UNL1        0.0445
     39 C         138.7174  148.1702  156.4801 C.3     1  UNL1        0.0419
     40 C         138.4022  149.6362  156.5190 C.3     1  UNL1        0.0903
     41 C         138.8480  150.5291  155.3991 C.2     1  UNL1        0.2275
     42 O         138.5328  151.9951  155.4380 O.2     1  UNL1       -0.2747
     43 N         139.6089  149.9561  154.2405 N.am    1  UNL1       -0.2695
     44 H         139.9015  150.5422  153.5055 H       1  UNL1        0.1562
@<TRIPOS>BOND
     1    22    21    1
     2    22    25    1
     3    25    26    1
     4    22    15    1
     5    15    16   ar
     6    16    17   ar
     7    17    11    1
     8    11    12    2
     9    11    13   am
    10     1    13    1
    11     1     2    1
    12     2     3    1
    13     3     4    1
    14     4     5   ar
    15     5     6   ar
    16     6     7   ar
    17     7    32    1
    18    32    33    1
    19    33    34   ar
    20    34    35   ar
    21    35    36   ar
    22    36    37   ar
    23    37    38   ar
    24    38    39    1
    25    39    40    1
    26    40    41    1
    27    41    42    2
    28    41    43   am
    29     7     8   ar
    30     8     9   ar
    31     9    10    1
    32    17    18   ar
    33    18    19   ar
    34    19    28    1
    35    28    29    1
    36    28    30    1
    37    28    31    1
    38    19    20   ar
    39    20    15   ar
    40    10     1    1
    41     9     4   ar
    42    38    33   ar
    43    43    37    1
    44    21    23    1
    45    21    24    1
    46    26    27    1
    47    13    14    1
    48    43    44    1
@<TRIPOS>MOLECULE
*****
 44 48 0 0 0
SMALL
GASTEIGER

@<TRIPOS>ATOM
      1 C         143.0254  141.3251  162.8127 C.3     1  UNL1        0.0765
      2 C         143.6823  142.6610  162.6286 C.3     1  UNL1        0.0246
      3 C         144.2570  143.0366  161.2950 C.3     1  UNL1        0.0277
      4 C         144.1749  142.0764  160.1456 C.ar    1  UNL1       -0.0258
      5 C         144.7497  142.4521  158.8119 C.ar    1  UNL1       -0.0014
      6 C         144.6676  141.4919  157.6625 C.ar    1  UNL1        0.0371
      7 C         144.0107  140.1560  157.8467 C.ar    1  UNL1        0.1450
      8 C         143.4359  139.7803  159.1803 C.ar    1  UNL1        0.0330
      9 C         143.5181  140.7405  160.3297 C.ar    1  UNL1       -0.0215
     10 C         142.9433  140.3649  161.6633 C.3     1  UNL1        0.0457
     11 C         141.0347  141.3132  164.4822 C.2     1  UNL1        0.2458
     12 O         140.1935  142.0527  163.4844 O.2     1  UNL1       -0.2701
     13 N         142.4506  140.9494  164.1464 N.am    1  UNL1       -0.3021
     14 H         143.0027  140.4641  164.8013 H       1  UNL1        0.1497
     15 C         140.3862  141.2278  168.3965 C.ar    1  UNL1       -0.0057
     16 C         140.9610  141.6035  167.0630 C.ar    1  UNL1        0.0016
     17 C         140.4599  140.9375  165.8159 C.ar    1  UNL1        0.0530
     18 C         139.3841  139.8959  165.9023 C.ar    1  UNL1        0.0083
     19 C         138.8093  139.5201  167.2358 C.ar    1  UNL1        0.0713
     20 C         139.3103  140.1861  168.4829 C.ar    1  UNL1        0.0009
     21 N         140.7938  143.3838  169.7877 N.3     1  UNL1       -0.3168
     22 CA        140.8872  141.8937  169.6438 C.3     1  UNL1        0.1033
     23 H1        141.1781  143.6630  170.6903 H       1  UNL1        0.1192
     24 H2        139.8165  143.6703  169.7310 H       1  UNL1        0.1192
     25 C         141.4817  141.0695  170.7471 C.3     1  UNL1        0.1570
     26 O         140.6269  140.6291  171.8983 O.3     1  UNL1       -0.3802
     27 H         140.3467  141.4051  172.4084 H       1  UNL1        0.2105
     28 C         137.7334  138.4785  167.3222 C.3     1  UNL1        0.4186
     29 F         136.6576  137.4368  167.4086 F       1  UNL1       -0.1659
     30 F         137.4182  138.9200  168.7207 F       1  UNL1       -0.1659
     31 F         138.0486  138.0369  165.9238 F       1  UNL1       -0.1659
     32 O         143.9286  139.1957  156.6972 O.3     1  UNL1       -0.4537
     33 C         142.5988  138.6476  156.2714 C.ar    1  UNL1        0.1455
     34 C         141.4543  139.5795  156.0039 C.ar    1  UNL1        0.0579
     35 C         140.1245  139.0314  155.5780 C.ar    1  UNL1        0.1034
     36 N         139.9393  137.5513  155.4197 N.ar    1  UNL1       -0.2291
     37 C         141.0839  136.6194  155.6873 C.ar    1  UNL1        0.1330
     38 C         142.4136  137.1675  156.1131 C.ar    1  UNL1        0.0445
     39 C         143.5582  136.2356  156.3806 C.3     1  UNL1        0.0419
     40 C         143.3729  134.7555  156.2223 C.3     1  UNL1        0.0903
     41 C         142.0431  134.2074  155.7965 C.2     1  UNL1        0.2275
     42 O         141.8579  132.7273  155.6382 O.2     1  UNL1       -0.2747
     43 N         140.8987  135.1393  155.5290 N.am    1  UNL1       -0.2695
     44 H         140.0259  134.7795  155.2495 H       1  UNL1        0.1562
@<TRIPOS>BOND
     1    22    21    1
     2    22    25    1
     3    25    26    1
     4    22    15    1
     5    15    16   ar
     6    16    17   ar
     7    17    11    1
     8    11    12    2
     9    11    13   am
    10     1    13    1
    11     1     2    1
    12     2     3    1
    13     3     4    1
    14     4     5   ar
    15     5     6   ar
    16     6     7   ar
    17     7    32    1
    18    32    33    1
    19    33    34   ar
    20    34    35   ar
    21    35    36   ar
    22    36    37   ar
    23    37    38   ar
    24    38    39    1
    25    39    40    1
    26    40    41    1
    27    41    42    2
    28    41    43   am
    29     7     8   ar
    30     8     9   ar
    31     9    10    1
    32    17    18   ar
    33    18    19   ar
    34    19    28    1
    35    28    29    1
    36    28    30    1
    37    28    31    1
    38    19    20   ar
    39    20    15   ar
    40    10     1    1
    41     9     4   ar
    42    38    33   ar
    43    43    37    1
    44    21    23    1
    45    21    24    1
    46    26    27    1
    47    13    14    1
    48    43    44    1
@<TRIPOS>MOLECULE
*****
 44 48 0 0 0
SMALL
GASTEIGER

@<TRIPOS>ATOM
      1 C         139.6976  143.5880  162.5997 C.3     1  UNL1        0.0765
      2 C         139.6576  145.0874  162.5948 C.3     1  UNL1        0.0246
      3 C         140.0347  145.8437  161.3556 C.3     1  UNL1        0.0277
      4 C         140.4517  145.1005  160.1211 C.ar    1  UNL1       -0.0258
      5 C         140.8287  145.8568  158.8818 C.ar    1  UNL1       -0.0014
      6 C         141.2457  145.1137  157.6474 C.ar    1  UNL1        0.0371
      7 C         141.2857  143.6142  157.6523 C.ar    1  UNL1        0.1450
      8 C         140.9086  142.8579  158.8915 C.ar    1  UNL1        0.0330
      9 C         140.4916  143.6011  160.1260 C.ar    1  UNL1       -0.0215
     10 C         140.1146  142.8448  161.3653 C.3     1  UNL1        0.0457
     11 C         140.3688  142.4857  164.8546 C.2     1  UNL1        0.2458
     12 O         141.7941  142.8961  164.6310 O.2     1  UNL1       -0.2701
     13 N         139.3205  142.8316  163.8390 N.am    1  UNL1       -0.3021
     14 H         138.3850  142.5623  163.9858 H       1  UNL1        0.1497
     15 C         140.0169  141.4938  168.6811 C.ar    1  UNL1       -0.0057
     16 C         140.3940  142.2501  167.4419 C.ar    1  UNL1        0.0016
     17 C         139.9917  141.7294  166.0939 C.ar    1  UNL1        0.0530
     18 C         139.2125  140.4523  165.9852 C.ar    1  UNL1        0.0083
     19 C         138.8354  139.6960  167.2244 C.ar    1  UNL1        0.0713
     20 C         139.2376  140.2167  168.5724 C.ar    1  UNL1        0.0009
     21 N         139.5682  143.0366  170.7228 N.3     1  UNL1       -0.3168
     22 CA        140.4191  142.0145  170.0291 C.3     1  UNL1        0.1033
     23 H1        139.9881  143.2754  171.6212 H       1  UNL1        0.1192
     24 H2        138.6344  142.6552  170.8745 H       1  UNL1        0.1192
     25 C         141.6723  141.5130  170.6835 C.3     1  UNL1        0.1570
     26 O         142.1741  142.1621  171.9392 O.3     1  UNL1       -0.3802
     27 H         142.4453  143.0732  171.7460 H       1  UNL1        0.2105
     28 C         138.0561  138.4189  167.1157 C.3     1  UNL1        0.4186
     29 F         137.2768  137.1418  167.0070 F       1  UNL1       -0.1659
     30 F         138.7937  138.0761  165.8554 F       1  UNL1       -0.1659
     31 F         137.3186  138.7616  168.3761 F       1  UNL1       -0.1659
     32 O         141.7026  142.8710  156.4178 O.3     1  UNL1       -0.4537
     33 C         142.8534  141.9104  156.4735 C.ar    1  UNL1        0.1455
     34 C         144.2612  142.4273  156.5026 C.ar    1  UNL1        0.0579
     35 C         145.4120  141.4667  156.5583 C.ar    1  UNL1        0.1034
     36 N         145.1549  139.9892  156.5849 N.ar    1  UNL1       -0.2291
     37 C         143.7470  139.4722  156.5559 C.ar    1  UNL1        0.1330
     38 C         142.5963  140.4328  156.5002 C.ar    1  UNL1        0.0445
     39 C         141.1885  139.9159  156.4711 C.3     1  UNL1        0.0419
     40 C         140.9314  138.4383  156.4978 C.3     1  UNL1        0.0903
     41 C         142.0821  137.4777  156.5535 C.2     1  UNL1        0.2275
     42 O         141.8251  136.0001  156.5801 O.2     1  UNL1       -0.2747
     43 N         143.4899  137.9947  156.5825 N.am    1  UNL1       -0.2695
     44 H         144.2452  137.3642  156.6191 H       1  UNL1        0.1562
@<TRIPOS>BOND
     1    22    21    1
     2    22    25    1
     3    25    26    1
     4    22    15    1
     5    15    16   ar
     6    16    17   ar
     7    17    11    1
     8    11    12    2
     9    11    13   am
    10     1    13    1
    11     1     2    1
    12     2     3    1
    13     3     4    1
    14     4     5   ar
    15     5     6   ar
    16     6     7   ar
    17     7    32    1
    18    32    33    1
    19    33    34   ar
    20    34    35   ar
    21    35    36   ar
    22    36    37   ar
    23    37    38   ar
    24    38    39    1
    25    39    40    1
    26    40    41    1
    27    41    42    2
    28    41    43   am
    29     7     8   ar
    30     8     9   ar
    31     9    10    1
    32    17    18   ar
    33    18    19   ar
    34    19    28    1
    35    28    29    1
    36    28    30    1
    37    28    31    1
    38    19    20   ar
    39    20    15   ar
    40    10     1    1
    41     9     4   ar
    42    38    33   ar
    43    43    37    1
    44    21    23    1
    45    21    24    1
    46    26    27    1
    47    13    14    1
    48    43    44    1
@<TRIPOS>MOLECULE
*****
 44 48 0 0 0
SMALL
GASTEIGER

@<TRIPOS>ATOM
      1 C         139.7363  143.4301  162.3132 C.3     1  UNL1        0.0765
      2 C         139.8226  144.9270  162.2711 C.3     1  UNL1        0.0246
      3 C         140.2194  145.6199  161.0013 C.3     1  UNL1        0.0277
      4 C         140.5298  144.8159  159.7736 C.ar    1  UNL1       -0.0258
      5 C         140.9265  145.5089  158.5038 C.ar    1  UNL1       -0.0014
      6 C         141.2369  144.7050  157.2761 C.ar    1  UNL1        0.0371
      7 C         141.1506  143.2080  157.3182 C.ar    1  UNL1        0.1450
      8 C         140.7539  142.5151  158.5880 C.ar    1  UNL1        0.0330
      9 C         140.4434  143.3190  159.8157 C.ar    1  UNL1       -0.0215
     10 C         140.0467  142.6261  161.0855 C.3     1  UNL1        0.0457
     11 C         140.3895  142.1310  164.4663 C.2     1  UNL1        0.2458
     12 O         141.8362  142.2178  164.0797 O.2     1  UNL1       -0.2701
     13 N         139.3395  142.7371  163.5831 N.am    1  UNL1       -0.3021
     14 H         138.3900  142.6801  163.8368 H       1  UNL1        0.1497
     15 C         139.9892  141.3259  168.3317 C.ar    1  UNL1       -0.0057
     16 C         140.3860  142.0189  167.0620 C.ar    1  UNL1        0.0016
     17 C         139.9928  141.4380  165.7361 C.ar    1  UNL1        0.0530
     18 C         139.2028  140.1641  165.6800 C.ar    1  UNL1        0.0083
     19 C         138.8060  139.4711  166.9498 C.ar    1  UNL1        0.0713
     20 C         139.1992  140.0520  168.2756 C.ar    1  UNL1        0.0009
     21 N         140.0823  143.3438  169.9656 N.3     1  UNL1       -0.3168
     22 CA        140.3824  141.9068  169.6576 C.3     1  UNL1        0.1033
     23 H1        140.4164  143.5676  170.9029 H       1  UNL1        0.1192
     24 H2        139.0752  143.4986  169.9176 H       1  UNL1        0.1192
     25 C         141.0758  141.0506  170.6756 C.3     1  UNL1        0.1570
     26 O         140.2739  140.1619  171.5795 O.3     1  UNL1       -0.3802
     27 H         139.7300  140.7070  172.1694 H       1  UNL1        0.2105
     28 C         138.0161  138.1972  166.8937 C.3     1  UNL1        0.4186
     29 F         137.2261  136.9233  166.8376 F       1  UNL1       -0.1659
     30 F         138.8331  137.7422  165.7209 F       1  UNL1       -0.1659
     31 F         137.1990  138.6522  168.0665 F       1  UNL1       -0.1659
     32 O         141.4610  142.4040  156.0905 O.3     1  UNL1       -0.4537
     33 C         142.2982  141.1640  156.1979 C.ar    1  UNL1        0.1455
     34 C         141.6499  139.8449  156.4975 C.ar    1  UNL1        0.0579
     35 C         142.4872  138.6049  156.6048 C.ar    1  UNL1        0.1034
     36 N         143.9727  138.6840  156.4127 N.ar    1  UNL1       -0.2291
     37 C         144.6210  140.0032  156.1131 C.ar    1  UNL1        0.1330
     38 C         143.7838  141.2431  156.0057 C.ar    1  UNL1        0.0445
     39 C         144.4321  142.5622  155.7061 C.3     1  UNL1        0.0419
     40 C         145.9176  142.6414  155.5140 C.3     1  UNL1        0.0903
     41 C         146.7548  141.4013  155.6213 C.2     1  UNL1        0.2275
     42 O         148.2404  141.4805  155.4292 O.2     1  UNL1       -0.2747
     43 N         146.1065  140.0823  155.9209 N.am    1  UNL1       -0.2695
     44 H         146.6560  139.2685  155.9914 H       1  UNL1        0.1562
@<TRIPOS>BOND
     1    22    21    1
     2    22    25    1
     3    25    26    1
     4    22    15    1
     5    15    16   ar
     6    16    17   ar
     7    17    11    1
     8    11    12    2
     9    11    13   am
    10     1    13    1
    11     1     2    1
    12     2     3    1
    13     3     4    1
    14     4     5   ar
    15     5     6   ar
    16     6     7   ar
    17     7    32    1
    18    32    33    1
    19    33    34   ar
    20    34    35   ar
    21    35    36   ar
    22    36    37   ar
    23    37    38   ar
    24    38    39    1
    25    39    40    1
    26    40    41    1
    27    41    42    2
    28    41    43   am
    29     7     8   ar
    30     8     9   ar
    31     9    10    1
    32    17    18   ar
    33    18    19   ar
    34    19    28    1
    35    28    29    1
    36    28    30    1
    37    28    31    1
    38    19    20   ar
    39    20    15   ar
    40    10     1    1
    41     9     4   ar
    42    38    33   ar
    43    43    37    1
    44    21    23    1
    45    21    24    1
    46    26    27    1
    47    13    14    1
    48    43    44    1
@<TRIPOS>MOLECULE
*****
 44 48 0 0 0
SMALL
GASTEIGER

@<TRIPOS>ATOM
      1 C         139.5059  143.5848  162.3752 C.3     1  UNL1        0.0765
      2 C         139.8543  145.0428  162.4269 C.3     1  UNL1        0.0246
      3 C         140.1996  145.7767  161.1651 C.3     1  UNL1        0.0277
      4 C         140.1965  145.0525  159.8515 C.ar    1  UNL1       -0.0258
      5 C         140.5418  145.7864  158.5897 C.ar    1  UNL1       -0.0014
      6 C         140.5386  145.0622  157.2761 C.ar    1  UNL1        0.0371
      7 C         140.1901  143.6041  157.2243 C.ar    1  UNL1        0.1450
      8 C         139.8448  142.8703  158.4861 C.ar    1  UNL1        0.0330
      9 C         139.8480  143.5945  159.7997 C.ar    1  UNL1       -0.0215
     10 C         139.5027  142.8606  161.0616 C.3     1  UNL1        0.0457
     11 C         140.2463  142.2275  164.4631 C.2     1  UNL1        0.2458
     12 O         141.6774  142.3380  164.0275 O.2     1  UNL1       -0.2701
     13 N         139.1605  142.8509  163.6370 N.am    1  UNL1       -0.3021
     14 H         138.2213  142.7784  163.9230 H       1  UNL1        0.1497
     15 C         139.9688  141.3181  168.3162 C.ar    1  UNL1       -0.0057
     16 C         140.3141  142.0520  167.0544 C.ar    1  UNL1        0.0016
     17 C         139.9010  141.4936  165.7250 C.ar    1  UNL1        0.0530
     18 C         139.1424  140.2013  165.6573 C.ar    1  UNL1        0.0083
     19 C         138.7971  139.4674  166.9191 C.ar    1  UNL1        0.0713
     20 C         139.2103  140.0258  168.2485 C.ar    1  UNL1        0.0009
     21 N         140.1925  141.0639  170.8921 N.3     1  UNL1       -0.3168
     22 CA        140.3820  141.8765  169.6457 C.3     1  UNL1        0.1033
     23 H1        140.5256  141.5938  171.6974 H       1  UNL1        0.1192
     24 H2        140.7208  140.1947  170.8149 H       1  UNL1        0.1192
     25 C         140.9847  143.2476  169.7287 C.3     1  UNL1        0.1570
     26 O         140.1488  144.4082  170.1804 O.3     1  UNL1       -0.3802
     27 H         139.4506  144.5770  169.5285 H       1  UNL1        0.2105
     28 C         138.0386  138.1751  166.8514 C.3     1  UNL1        0.4186
     29 F         137.2801  136.8828  166.7838 F       1  UNL1       -0.1659
     30 F         138.8869  137.7377  165.6943 F       1  UNL1       -0.1659
     31 F         137.1903  138.6124  168.0086 F       1  UNL1       -0.1659
     32 O         140.1869  142.8799  155.9107 O.3     1  UNL1       -0.4537
     33 C         139.6381  141.4866  155.8238 C.ar    1  UNL1        0.1455
     34 C         140.5529  140.3088  155.9845 C.ar    1  UNL1        0.0579
     35 C         140.0040  138.9155  155.8975 C.ar    1  UNL1        0.1034
     36 N         138.5404  138.7000  155.6498 N.ar    1  UNL1       -0.2291
     37 C         137.6256  139.8779  155.4891 C.ar    1  UNL1        0.1330
     38 C         138.1745  141.2712  155.5761 C.ar    1  UNL1        0.0445
     39 C         137.2597  142.4491  155.4154 C.3     1  UNL1        0.0419
     40 C         135.7960  142.2337  155.1677 C.3     1  UNL1        0.0903
     41 C         135.2472  140.8403  155.0808 C.2     1  UNL1        0.2275
     42 O         133.7835  140.6249  154.8331 O.2     1  UNL1       -0.2747
     43 N         136.1620  139.6625  155.2415 N.am    1  UNL1       -0.2695
     44 H         135.8017  138.7481  155.1844 H       1  UNL1        0.1562
@<TRIPOS>BOND
     1    22    21    1
     2    22    25    1
     3    25    26    1
     4    22    15    1
     5    15    16   ar
     6    16    17   ar
     7    17    11    1
     8    11    12    2
     9    11    13   am
    10     1    13    1
    11     1     2    1
    12     2     3    1
    13     3     4    1
    14     4     5   ar
    15     5     6   ar
    16     6     7   ar
    17     7    32    1
    18    32    33    1
    19    33    34   ar
    20    34    35   ar
    21    35    36   ar
    22    36    37   ar
    23    37    38   ar
    24    38    39    1
    25    39    40    1
    26    40    41    1
    27    41    42    2
    28    41    43   am
    29     7     8   ar
    30     8     9   ar
    31     9    10    1
    32    17    18   ar
    33    18    19   ar
    34    19    28    1
    35    28    29    1
    36    28    30    1
    37    28    31    1
    38    19    20   ar
    39    20    15   ar
    40    10     1    1
    41     9     4   ar
    42    38    33   ar
    43    43    37    1
    44    21    23    1
    45    21    24    1
    46    26    27    1
    47    13    14    1
    48    43    44    1
@<TRIPOS>MOLECULE
*****
 44 48 0 0 0
SMALL
GASTEIGER

@<TRIPOS>ATOM
      1 C         140.2871  141.7866  161.4872 C.3     1  UNL1        0.0765
      2 C         140.4876  143.2159  161.0784 C.3     1  UNL1        0.0246
      3 C         139.9286  143.7091  159.7768 C.3     1  UNL1        0.0277
      4 C         139.1692  142.7731  158.8839 C.ar    1  UNL1       -0.0258
      5 C         138.6102  143.2664  157.5823 C.ar    1  UNL1       -0.0014
      6 C         137.8508  142.3304  156.6894 C.ar    1  UNL1        0.0371
      7 C         137.6504  140.9011  157.0982 C.ar    1  UNL1        0.1450
      8 C         138.2094  140.4079  158.3998 C.ar    1  UNL1        0.0330
      9 C         138.9688  141.3439  159.2927 C.ar    1  UNL1       -0.0215
     10 C         139.5278  140.8506  160.5943 C.3     1  UNL1        0.0457
     11 C         140.0220  141.3782  164.0392 C.2     1  UNL1        0.2458
     12 O         138.6388  141.9563  163.9880 O.2     1  UNL1       -0.2701
     13 N         140.8461  141.2933  162.7888 N.am    1  UNL1       -0.3021
     14 H         141.7539  140.9139  162.8224 H       1  UNL1        0.1497
     15 C         140.5424  140.8534  167.9384 C.ar    1  UNL1       -0.0057
     16 C         139.9834  141.3467  166.6368 C.ar    1  UNL1        0.0016
     17 C         140.5810  140.8849  165.3409 C.ar    1  UNL1        0.0530
     18 C         141.7375  139.9297  165.3465 C.ar    1  UNL1        0.0083
     19 C         142.2965  139.4364  166.6481 C.ar    1  UNL1        0.0713
     20 C         141.6989  139.8983  167.9440 C.ar    1  UNL1        0.0009
     21 N         140.2076  142.7073  169.7276 N.3     1  UNL1       -0.3168
     22 CA        139.9448  141.3153  169.2344 C.3     1  UNL1        0.1033
     23 H1        139.7275  142.8494  170.6163 H       1  UNL1        0.1192
     24 H2        139.8633  143.3810  169.0436 H       1  UNL1        0.1192
     25 C         139.0844  140.3851  170.0373 C.3     1  UNL1        0.1570
     26 O         139.6830  139.5917  171.1607 O.3     1  UNL1       -0.3802
     27 H         140.3207  138.9545  170.8027 H       1  UNL1        0.2105
     28 C         143.4531  138.4812  166.6537 C.3     1  UNL1        0.4186
     29 F         144.6096  137.5261  166.6593 F       1  UNL1       -0.1659
     30 F         143.6519  138.7133  165.1851 F       1  UNL1       -0.1659
     31 F         143.2543  138.2491  168.1222 F       1  UNL1       -0.1659
     32 O         136.8910  139.9651  156.2053 O.3     1  UNL1       -0.4537
     33 C         135.8679  140.5045  155.2501 C.ar    1  UNL1        0.1455
     34 C         136.3003  141.0801  153.9342 C.ar    1  UNL1        0.0579
     35 C         135.2772  141.6195  152.9790 C.ar    1  UNL1        0.1034
     36 N         133.8216  141.5832  153.3397 N.ar    1  UNL1       -0.2291
     37 C         133.3893  141.0075  154.6557 C.ar    1  UNL1        0.1330
     38 C         134.4124  140.4682  155.6108 C.ar    1  UNL1        0.0445
     39 C         133.9800  139.8925  156.9268 C.3     1  UNL1        0.0419
     40 C         132.5245  139.8562  157.2876 C.3     1  UNL1        0.0903
     41 C         131.5014  140.3956  156.3324 C.2     1  UNL1        0.2275
     42 O         130.0458  140.3593  156.6932 O.2     1  UNL1       -0.2747
     43 N         131.9338  140.9712  155.0165 N.am    1  UNL1       -0.2695
     44 H         131.2622  141.3252  154.3896 H       1  UNL1        0.1562
@<TRIPOS>BOND
     1    22    21    1
     2    22    25    1
     3    25    26    1
     4    22    15    1
     5    15    16   ar
     6    16    17   ar
     7    17    11    1
     8    11    12    2
     9    11    13   am
    10     1    13    1
    11     1     2    1
    12     2     3    1
    13     3     4    1
    14     4     5   ar
    15     5     6   ar
    16     6     7   ar
    17     7    32    1
    18    32    33    1
    19    33    34   ar
    20    34    35   ar
    21    35    36   ar
    22    36    37   ar
    23    37    38   ar
    24    38    39    1
    25    39    40    1
    26    40    41    1
    27    41    42    2
    28    41    43   am
    29     7     8   ar
    30     8     9   ar
    31     9    10    1
    32    17    18   ar
    33    18    19   ar
    34    19    28    1
    35    28    29    1
    36    28    30    1
    37    28    31    1
    38    19    20   ar
    39    20    15   ar
    40    10     1    1
    41     9     4   ar
    42    38    33   ar
    43    43    37    1
    44    21    23    1
    45    21    24    1
    46    26    27    1
    47    13    14    1
    48    43    44    1
@<TRIPOS>MOLECULE
*****
 44 48 0 0 0
SMALL
GASTEIGER

@<TRIPOS>ATOM
      1 C         140.9973  145.1081  160.3448 C.3     1  UNL1        0.0765
      2 C         140.0155  146.0862  160.9186 C.3     1  UNL1        0.0246
      3 C         139.4441  145.8600  162.2869 C.3     1  UNL1        0.0277
      4 C         139.8546  144.6558  163.0814 C.ar    1  UNL1       -0.0258
      5 C         139.2832  144.4296  164.4498 C.ar    1  UNL1       -0.0014
      6 C         139.6937  143.2254  165.2444 C.ar    1  UNL1        0.0371
      7 C         140.6756  142.2473  164.6705 C.ar    1  UNL1        0.1450
      8 C         141.2469  142.4734  163.3022 C.ar    1  UNL1        0.0330
      9 C         140.8365  143.6777  162.5076 C.ar    1  UNL1       -0.0215
     10 C         141.4078  143.9038  161.1393 C.3     1  UNL1        0.0457
     11 C         140.8475  144.8163  157.7675 C.2     1  UNL1        0.2458
     12 O         139.5548  144.0723  157.9268 O.2     1  UNL1       -0.2701
     13 N         141.5688  145.3342  158.9764 N.am    1  UNL1       -0.3021
     14 H         142.4172  145.8225  158.8718 H       1  UNL1        0.1497
     15 C         143.1558  144.4501  154.5601 C.ar    1  UNL1       -0.0057
     16 C         142.5845  144.2240  155.9284 C.ar    1  UNL1        0.0016
     17 C         141.4190  145.0425  156.3991 C.ar    1  UNL1        0.0530
     18 C         140.8248  146.0871  155.5015 C.ar    1  UNL1        0.0083
     19 C         141.3962  146.3133  154.1331 C.ar    1  UNL1        0.0713
     20 C         142.5617  145.4948  153.6624 C.ar    1  UNL1        0.0009
     21 N         145.7195  144.1437  154.2708 N.3     1  UNL1       -0.3168
     22 CA        144.3214  143.6316  154.0893 C.3     1  UNL1        0.1033
     23 H1        146.3818  143.4643  153.8963 H       1  UNL1        0.1192
     24 H2        145.9033  144.2857  155.2640 H       1  UNL1        0.1192
     25 C         144.0888  142.3010  153.4370 C.3     1  UNL1        0.1570
     26 O         143.7812  141.0973  154.2774 O.3     1  UNL1       -0.3802
     27 H         144.5528  140.8780  154.8228 H       1  UNL1        0.2105
     28 C         140.8020  147.3579  153.2355 C.3     1  UNL1        0.4186
     29 F         140.2079  148.4025  152.3379 F       1  UNL1       -0.1659
     30 F         141.9677  147.2186  152.3018 F       1  UNL1       -0.1659
     31 F         139.6364  147.4972  154.1692 F       1  UNL1       -0.1659
     32 O         141.0860  141.0430  165.4651 O.3     1  UNL1       -0.4537
     33 C         140.1519  140.4640  166.4859 C.ar    1  UNL1        0.1455
     34 C         139.1139  139.4639  166.0709 C.ar    1  UNL1        0.0579
     35 C         138.1798  138.8848  167.0918 C.ar    1  UNL1        0.1034
     36 N         138.2837  139.3060  168.5277 N.ar    1  UNL1       -0.2291
     37 C         139.3217  140.3062  168.9427 C.ar    1  UNL1        0.1330
     38 C         140.2558  140.8852  167.9219 C.ar    1  UNL1        0.0445
     39 C         141.2938  141.8854  168.3369 C.3     1  UNL1        0.0419
     40 C         141.3977  142.3065  169.7728 C.3     1  UNL1        0.0903
     41 C         140.4635  141.7275  170.7937 C.2     1  UNL1        0.2275
     42 O         140.5674  142.1486  172.2296 O.2     1  UNL1       -0.2747
     43 N         139.4256  140.7273  170.3786 N.am    1  UNL1       -0.2695
     44 H         138.8125  140.3473  171.0487 H       1  UNL1        0.1562
@<TRIPOS>BOND
     1    22    21    1
     2    22    25    1
     3    25    26    1
     4    22    15    1
     5    15    16   ar
     6    16    17   ar
     7    17    11    1
     8    11    12    2
     9    11    13   am
    10     1    13    1
    11     1     2    1
    12     2     3    1
    13     3     4    1
    14     4     5   ar
    15     5     6   ar
    16     6     7   ar
    17     7    32    1
    18    32    33    1
    19    33    34   ar
    20    34    35   ar
    21    35    36   ar
    22    36    37   ar
    23    37    38   ar
    24    38    39    1
    25    39    40    1
    26    40    41    1
    27    41    42    2
    28    41    43   am
    29     7     8   ar
    30     8     9   ar
    31     9    10    1
    32    17    18   ar
    33    18    19   ar
    34    19    28    1
    35    28    29    1
    36    28    30    1
    37    28    31    1
    38    19    20   ar
    39    20    15   ar
    40    10     1    1
    41     9     4   ar
    42    38    33   ar
    43    43    37    1
    44    21    23    1
    45    21    24    1
    46    26    27    1
    47    13    14    1
    48    43    44    1
@<TRIPOS>MOLECULE
*****
 44 48 0 0 0
SMALL
GASTEIGER

@<TRIPOS>ATOM
      1 C         140.8586  138.6059  161.3729 C.3     1  UNL1        0.0765
      2 C         139.4603  138.1085  161.5907 C.3     1  UNL1        0.0246
      3 C         138.6616  138.6043  162.7595 C.3     1  UNL1        0.0277
      4 C         139.2610  139.5974  163.7105 C.ar    1  UNL1       -0.0258
      5 C         138.4622  140.0931  164.8793 C.ar    1  UNL1       -0.0014
      6 C         139.0617  141.0862  165.8304 C.ar    1  UNL1        0.0371
      7 C         140.4600  141.5835  165.6125 C.ar    1  UNL1        0.1450
      8 C         141.2588  141.0878  164.4437 C.ar    1  UNL1        0.0330
      9 C         140.6593  140.0947  163.4927 C.ar    1  UNL1       -0.0215
     10 C         141.4581  139.5989  162.3239 C.3     1  UNL1        0.0457
     11 C         141.6754  138.8901  158.9230 C.2     1  UNL1        0.2458
     12 O         140.8945  140.1659  158.8106 O.2     1  UNL1       -0.2701
     13 N         141.6575  138.1101  160.2040 N.am    1  UNL1       -0.3021
     14 H         142.1700  137.2728  160.2778 H       1  UNL1        0.1497
     15 C         143.3344  136.4298  156.2877 C.ar    1  UNL1       -0.0057
     16 C         142.5356  136.9255  157.4565 C.ar    1  UNL1        0.0016
     17 C         142.4742  138.3944  157.7541 C.ar    1  UNL1        0.0530
     18 C         143.2118  139.3675  156.8829 C.ar    1  UNL1        0.0083
     19 C         144.0106  138.8719  155.7141 C.ar    1  UNL1        0.0713
     20 C         144.0719  137.4030  155.4165 C.ar    1  UNL1        0.0009
     21 N         143.0091  134.4540  154.6323 N.3     1  UNL1       -0.3168
     22 CA        143.3957  134.9609  155.9900 C.3     1  UNL1        0.1033
     23 H1        143.1100  133.4393  154.6068 H       1  UNL1        0.1192
     24 H2        143.6151  134.8738  153.9274 H       1  UNL1        0.1192
     25 C         143.8437  133.9989  157.0502 C.3     1  UNL1        0.1570
     26 O         142.8921  132.9654  157.5757 O.3     1  UNL1       -0.3802
     27 H         142.1682  133.4037  158.0497 H       1  UNL1        0.2105
     28 C         144.7481  139.8451  154.8429 C.3     1  UNL1        0.4186
     29 F         145.4856  140.8183  153.9718 F       1  UNL1       -0.1659
     30 F         145.4927  138.7098  154.2051 F       1  UNL1       -0.1659
     31 F         144.0036  140.9803  155.4808 F       1  UNL1       -0.1659
     32 O         141.0595  142.5766  166.5635 O.3     1  UNL1       -0.4537
     33 C         140.9516  142.3572  168.0435 C.ar    1  UNL1        0.1455
     34 C         140.2366  143.3597  168.9001 C.ar    1  UNL1        0.0579
     35 C         140.1287  143.1403  170.3801 C.ar    1  UNL1        0.1034
     36 N         140.7359  141.9185  171.0034 N.ar    1  UNL1       -0.2291
     37 C         141.4509  140.9161  170.1468 C.ar    1  UNL1        0.1330
     38 C         141.5588  141.1354  168.6668 C.ar    1  UNL1        0.0445
     39 C         142.2739  140.1330  167.8102 C.3     1  UNL1        0.0419
     40 C         142.8810  138.9112  168.4335 C.3     1  UNL1        0.0903
     41 C         142.7732  138.6918  169.9135 C.2     1  UNL1        0.2275
     42 O         143.3803  137.4700  170.5368 O.2     1  UNL1       -0.2747
     43 N         142.0581  139.6942  170.7701 N.am    1  UNL1       -0.2695
     44 H         141.9873  139.5503  171.7414 H       1  UNL1        0.1562
@<TRIPOS>BOND
     1    22    21    1
     2    22    25    1
     3    25    26    1
     4    22    15    1
     5    15    16   ar
     6    16    17   ar
     7    17    11    1
     8    11    12    2
     9    11    13   am
    10     1    13    1
    11     1     2    1
    12     2     3    1
    13     3     4    1
    14     4     5   ar
    15     5     6   ar
    16     6     7   ar
    17     7    32    1
    18    32    33    1
    19    33    34   ar
    20    34    35   ar
    21    35    36   ar
    22    36    37   ar
    23    37    38   ar
    24    38    39    1
    25    39    40    1
    26    40    41    1
    27    41    42    2
    28    41    43   am
    29     7     8   ar
    30     8     9   ar
    31     9    10    1
    32    17    18   ar
    33    18    19   ar
    34    19    28    1
    35    28    29    1
    36    28    30    1
    37    28    31    1
    38    19    20   ar
    39    20    15   ar
    40    10     1    1
    41     9     4   ar
    42    38    33   ar
    43    43    37    1
    44    21    23    1
    45    21    24    1
    46    26    27    1
    47    13    14    1
    48    43    44    1
@<TRIPOS>MOLECULE
*****
 44 48 0 0 0
SMALL
GASTEIGER

@<TRIPOS>ATOM
      1 C         139.4888  143.4526  162.2475 C.3     1  UNL1        0.0765
      2 C         140.0819  144.8277  162.3321 C.3     1  UNL1        0.0246
      3 C         140.4200  145.5771  161.0775 C.3     1  UNL1        0.0277
      4 C         140.1651  144.9513  159.7383 C.ar    1  UNL1       -0.0258
      5 C         140.5032  145.7007  158.4837 C.ar    1  UNL1       -0.0014
      6 C         140.2482  145.0749  157.1445 C.ar    1  UNL1        0.0371
      7 C         139.6551  143.6997  157.0600 C.ar    1  UNL1        0.1450
      8 C         139.3170  142.9504  158.3146 C.ar    1  UNL1        0.0330
      9 C         139.5720  143.5762  159.6538 C.ar    1  UNL1       -0.0215
     10 C         139.2338  142.8268  160.9084 C.3     1  UNL1        0.0457
     11 C         140.2471  142.1736  164.3781 C.2     1  UNL1        0.2458
     12 O         141.6818  142.3934  163.9994 O.2     1  UNL1       -0.2701
     13 N         139.1506  142.7032  163.5022 N.am    1  UNL1       -0.3021
     14 H         138.2090  142.5589  163.7508 H       1  UNL1        0.1497
     15 C         139.9807  141.2230  168.2219 C.ar    1  UNL1       -0.0057
     16 C         140.3188  141.9724  166.9674 C.ar    1  UNL1        0.0016
     17 C         139.9090  141.4241  165.6327 C.ar    1  UNL1        0.0530
     18 C         139.1610  140.1264  165.5526 C.ar    1  UNL1        0.0083
     19 C         138.8228  139.3770  166.8072 C.ar    1  UNL1        0.0713
     20 C         139.2326  139.9253  168.1418 C.ar    1  UNL1        0.0009
     21 N         140.2288  140.9363  170.7922 N.3     1  UNL1       -0.3168
     22 CA        140.3905  141.7713  169.5567 C.3     1  UNL1        0.1033
     23 H1        140.5555  141.4620  171.6030 H       1  UNL1        0.1192
     24 H2        140.7765  140.0808  170.6985 H       1  UNL1        0.1192
     25 C         140.9620  143.1546  169.6558 C.3     1  UNL1        0.1570
     26 O         140.0469  144.3411  169.7230 O.3     1  UNL1       -0.3802
     27 H         139.5639  144.4247  168.8860 H       1  UNL1        0.2105
     28 C         138.0748  138.0793  166.7271 C.3     1  UNL1        0.4186
     29 F         137.3268  136.7816  166.6470 F       1  UNL1       -0.1659
     30 F         138.9505  137.6447  165.5894 F       1  UNL1       -0.1659
     31 F         137.1991  138.5138  167.8648 F       1  UNL1       -0.1659
     32 O         139.4002  143.0739  155.7208 O.3     1  UNL1       -0.4537
     33 C         138.3584  142.0040  155.5790 C.ar    1  UNL1        0.1455
     34 C         136.9069  142.3755  155.5062 C.ar    1  UNL1        0.0579
     35 C         135.8651  141.3056  155.3644 C.ar    1  UNL1        0.1034
     36 N         136.2748  139.8642  155.2955 N.ar    1  UNL1       -0.2291
     37 C         137.7264  139.4928  155.3684 C.ar    1  UNL1        0.1330
     38 C         138.7681  140.5627  155.5101 C.ar    1  UNL1        0.0445
     39 C         140.2196  140.1913  155.5830 C.3     1  UNL1        0.0419
     40 C         140.6293  138.7500  155.5141 C.3     1  UNL1        0.0903
     41 C         139.5875  137.6801  155.3723 C.2     1  UNL1        0.2275
     42 O         139.9972  136.2388  155.3034 O.2     1  UNL1       -0.2747
     43 N         138.1361  138.0515  155.2995 N.am    1  UNL1       -0.2695
     44 H         137.4523  137.3493  155.2064 H       1  UNL1        0.1562
@<TRIPOS>BOND
     1    22    21    1
     2    22    25    1
     3    25    26    1
     4    22    15    1
     5    15    16   ar
     6    16    17   ar
     7    17    11    1
     8    11    12    2
     9    11    13   am
    10     1    13    1
    11     1     2    1
    12     2     3    1
    13     3     4    1
    14     4     5   ar
    15     5     6   ar
    16     6     7   ar
    17     7    32    1
    18    32    33    1
    19    33    34   ar
    20    34    35   ar
    21    35    36   ar
    22    36    37   ar
    23    37    38   ar
    24    38    39    1
    25    39    40    1
    26    40    41    1
    27    41    42    2
    28    41    43   am
    29     7     8   ar
    30     8     9   ar
    31     9    10    1
    32    17    18   ar
    33    18    19   ar
    34    19    28    1
    35    28    29    1
    36    28    30    1
    37    28    31    1
    38    19    20   ar
    39    20    15   ar
    40    10     1    1
    41     9     4   ar
    42    38    33   ar
    43    43    37    1
    44    21    23    1
    45    21    24    1
    46    26    27    1
    47    13    14    1
    48    43    44    1
