@<TRIPOS>MOLECULE
*****
 33 37 0 0 0
SMALL
GASTEIGER

@<TRIPOS>ATOM
      1 C         141.7487  143.7047  161.3103 C.ar    1  UNL1        0.0670
      2 C         140.8108  142.6427  161.8027 C.ar    1  UNL1        0.0191
      3 C         140.9999  142.0492  163.1672 C.ar    1  UNL1        0.0203
      4 C         142.1268  142.5178  164.0393 C.ar    1  UNL1        0.0795
      5 C         143.0646  143.5797  163.5469 C.ar    1  UNL1        0.0396
      6 C         144.0770  143.8393  164.6229 C.ar    1  UNL1        0.1216
      7 N         143.7648  142.9377  165.7803 N.ar    1  UNL1       -0.1677
      8 N         142.5595  142.1209  165.4197 N.ar    1  UNL1       -0.2494
      9 C         142.8756  144.1732  162.1824 C.ar    1  UNL1        0.0207
     10 O         139.6157  145.7640  160.8526 O.2     1  UNL1       -0.2665
     11 C         140.4932  145.3279  159.7168 C.ar    1  UNL1        0.2679
     12 C         140.3042  145.9214  158.3523 C.ar    1  UNL1        0.0980
     13 C         141.1817  145.4853  157.2165 C.ar    1  UNL1        0.1453
     14 C         142.2482  144.4556  157.4454 C.ar    1  UNL1        0.0561
     15 C         142.4372  143.8621  158.8100 C.ar    1  UNL1        0.0860
     16 N         141.5597  144.2982  159.9456 N.ar    1  UNL1       -0.2729
     17 O         140.9926  146.0788  155.8520 O.3     1  UNL1       -0.4704
     18 C         139.6379  146.5607  155.4249 C.3     1  UNL1        0.2320
     19 C         139.3822  148.0295  155.2593 C.ar    1  UNL1        0.0212
     20 C         138.6311  148.7838  156.3160 C.ar    1  UNL1       -0.0007
     21 C         138.3754  150.2525  156.1503 C.ar    1  UNL1       -0.0002
     22 C         138.8708  150.9669  154.9279 C.ar    1  UNL1       -0.0000
     23 C         139.6219  150.2125  153.8712 C.ar    1  UNL1       -0.0002
     24 C         139.8776  148.7439  154.0369 C.ar    1  UNL1       -0.0007
     25 C         141.9023  141.0886  166.2871 C.3     1  UNL1        0.1447
     26 C         142.6452  140.5047  167.4521 C.3     1  UNL1        0.0988
     27 N         142.4527  141.0745  168.8261 N.3     1  UNL1       -0.2686
     28 C         143.1638  142.3346  169.2219 C.3     1  UNL1        0.0895
     29 C         142.9713  142.9045  170.5959 C.3     1  UNL1        0.0862
     30 N         142.0678  142.2143  171.5743 N.3     1  UNL1       -0.2951
     31 C         141.3567  140.9543  171.1786 C.3     1  UNL1        0.0862
     32 C         141.5491  140.3844  169.8045 C.3     1  UNL1        0.0895
     33 H         141.3486  142.8883  171.8369 H       1  UNL1        0.1233
@<TRIPOS>BOND
     1    10    11    2
     2    11    12   ar
     3    12    13   ar
     4    13    17    1
     5    17    18    1
     6    18    19    1
     7    19    20   ar
     8    20    21   ar
     9    21    22   ar
    10    22    23   ar
    11    23    24   ar
    12    13    14   ar
    13    14    15   ar
    14    15    16   ar
    15    16     1    1
    16     1     2   ar
    17     2     3   ar
    18     3     4   ar
    19     4     5   ar
    20     5     6   ar
    21     6     7   ar
    22     7     8   ar
    23     8    25    1
    24    25    26    1
    25    26    27    1
    26    27    28    1
    27    28    29    1
    28    29    30    1
    29    30    31    1
    30    31    32    1
    31     5     9   ar
    32    16    11   ar
    33     9     1   ar
    34    24    19   ar
    35     8     4   ar
    36    32    27    1
    37    30    33    1
@<TRIPOS>MOLECULE
*****
 33 37 0 0 0
SMALL
GASTEIGER

@<TRIPOS>ATOM
      1 C         141.4550  142.2673  166.2891 C.ar    1  UNL1        0.0670
      2 C         142.4482  142.8874  165.3517 C.ar    1  UNL1        0.0191
      3 C         141.9753  143.7685  164.2336 C.ar    1  UNL1        0.0203
      4 C         140.5092  144.0294  164.0531 C.ar    1  UNL1        0.0795
      5 C         139.5160  143.4092  164.9906 C.ar    1  UNL1        0.0396
      6 C         138.1445  143.8446  164.5672 C.ar    1  UNL1        0.1216
      7 N         138.2900  144.7339  163.3680 N.ar    1  UNL1       -0.1677
      8 N         139.7515  144.8481  163.0502 N.ar    1  UNL1       -0.2494
      9 C         139.9889  142.5282  166.1086 C.ar    1  UNL1        0.0207
     10 O         141.9759  139.3558  165.7868 O.2     1  UNL1       -0.2665
     11 C         142.1883  139.9304  167.1561 C.ar    1  UNL1        0.2679
     12 C         142.6611  139.0493  168.2741 C.ar    1  UNL1        0.0980
     13 C         142.8735  139.6239  169.6434 C.ar    1  UNL1        0.1453
     14 C         142.6131  141.0796  169.8945 C.ar    1  UNL1        0.0561
     15 C         142.1402  141.9607  168.7764 C.ar    1  UNL1        0.0860
     16 N         141.9278  141.3861  167.4073 N.ar    1  UNL1       -0.2729
     17 O         143.3464  138.7428  170.7614 O.3     1  UNL1       -0.4704
     18 C         143.7358  137.3213  170.4826 C.3     1  UNL1        0.2320
     19 C         144.6315  136.5881  171.4367 C.ar    1  UNL1        0.0212
     20 C         145.6605  137.3401  172.2277 C.ar    1  UNL1       -0.0007
     21 C         146.5561  136.6068  173.1818 C.ar    1  UNL1       -0.0002
     22 C         146.4227  135.1217  173.3448 C.ar    1  UNL1       -0.0000
     23 C         145.3937  134.3698  172.5539 C.ar    1  UNL1       -0.0002
     24 C         144.4981  135.1030  171.5998 C.ar    1  UNL1       -0.0007
     25 C         140.3502  145.6417  161.9269 C.3     1  UNL1        0.1447
     26 C         141.1459  144.9494  160.8604 C.3     1  UNL1        0.0988
     27 N         140.5133  144.6362  159.5369 N.3     1  UNL1       -0.2686
     28 C         140.7008  145.5685  158.3768 C.3     1  UNL1        0.0895
     29 C         140.0683  145.2555  157.0532 C.3     1  UNL1        0.0862
     30 N         139.2483  144.0101  156.8897 N.3     1  UNL1       -0.2951
     31 C         139.0608  143.0779  158.0498 C.3     1  UNL1        0.0862
     32 C         139.6933  143.3909  159.3734 C.3     1  UNL1        0.0895
     33 H         139.6826  143.4676  156.1431 H       1  UNL1        0.1233
@<TRIPOS>BOND
     1    10    11    2
     2    11    12   ar
     3    12    13   ar
     4    13    17    1
     5    17    18    1
     6    18    19    1
     7    19    20   ar
     8    20    21   ar
     9    21    22   ar
    10    22    23   ar
    11    23    24   ar
    12    13    14   ar
    13    14    15   ar
    14    15    16   ar
    15    16     1    1
    16     1     2   ar
    17     2     3   ar
    18     3     4   ar
    19     4     5   ar
    20     5     6   ar
    21     6     7   ar
    22     7     8   ar
    23     8    25    1
    24    25    26    1
    25    26    27    1
    26    27    28    1
    27    28    29    1
    28    29    30    1
    29    30    31    1
    30    31    32    1
    31     5     9   ar
    32    16    11   ar
    33     9     1   ar
    34    24    19   ar
    35     8     4   ar
    36    32    27    1
    37    30    33    1
@<TRIPOS>MOLECULE
*****
 33 37 0 0 0
SMALL
GASTEIGER

@<TRIPOS>ATOM
      1 C         140.5217  138.6853  160.7182 C.ar    1  UNL1        0.0670
      2 C         142.0116  138.7794  160.5727 C.ar    1  UNL1        0.0191
      3 C         142.6474  138.5880  159.2276 C.ar    1  UNL1        0.0203
      4 C         141.7932  138.3026  158.0281 C.ar    1  UNL1        0.0795
      5 C         140.3033  138.2085  158.1736 C.ar    1  UNL1        0.0396
      6 C         139.7229  137.9177  156.8213 C.ar    1  UNL1        0.1216
      7 N         140.8542  137.8320  155.8401 N.ar    1  UNL1       -0.1677
      8 N         142.1337  138.0699  156.5859 N.ar    1  UNL1       -0.2494
      9 C         139.6675  138.3999  159.5186 C.ar    1  UNL1        0.0207
     10 O         141.0642  136.7277  162.9258 O.2     1  UNL1       -0.2665
     11 C         140.1571  137.8978  163.1671 C.ar    1  UNL1        0.2679
     12 C         139.5213  138.0891  164.5121 C.ar    1  UNL1        0.0980
     13 C         138.6143  139.2593  164.7534 C.ar    1  UNL1        0.1453
     14 C         138.3430  140.2380  163.6496 C.ar    1  UNL1        0.0561
     15 C         138.9789  140.0467  162.3045 C.ar    1  UNL1        0.0860
     16 N         139.8859  138.8766  162.0633 N.ar    1  UNL1       -0.2729
     17 O         137.9785  139.4505  166.0984 O.3     1  UNL1       -0.4704
     18 C         138.7876  139.2511  167.3456 C.3     1  UNL1        0.2320
     19 C         139.4084  140.4307  168.0336 C.ar    1  UNL1        0.0212
     20 C         139.2619  140.5962  169.5172 C.ar    1  UNL1       -0.0007
     21 C         139.8826  141.7758  170.2051 C.ar    1  UNL1       -0.0002
     22 C         140.6498  142.7899  169.4094 C.ar    1  UNL1       -0.0000
     23 C         140.7962  142.6244  167.9258 C.ar    1  UNL1       -0.0002
     24 C         140.1755  141.4448  167.2379 C.ar    1  UNL1       -0.0007
     25 C         143.5118  138.0743  155.9935 C.3     1  UNL1        0.1447
     26 C         144.0654  136.8260  155.3729 C.3     1  UNL1        0.0988
     27 N         143.4629  135.4929  155.7041 N.3     1  UNL1       -0.2686
     28 C         143.7756  134.8334  157.0146 C.3     1  UNL1        0.0895
     29 C         143.1731  133.5003  157.3460 C.3     1  UNL1        0.0862
     30 N         142.2581  132.8266  156.3668 N.3     1  UNL1       -0.2951
     31 C         141.9454  133.4860  155.0563 C.3     1  UNL1        0.0862
     32 C         142.5478  134.8192  154.7250 C.3     1  UNL1        0.0895
     33 H         141.3682  132.6849  156.8449 H       1  UNL1        0.1233
@<TRIPOS>BOND
     1    10    11    2
     2    11    12   ar
     3    12    13   ar
     4    13    17    1
     5    17    18    1
     6    18    19    1
     7    19    20   ar
     8    20    21   ar
     9    21    22   ar
    10    22    23   ar
    11    23    24   ar
    12    13    14   ar
    13    14    15   ar
    14    15    16   ar
    15    16     1    1
    16     1     2   ar
    17     2     3   ar
    18     3     4   ar
    19     4     5   ar
    20     5     6   ar
    21     6     7   ar
    22     7     8   ar
    23     8    25    1
    24    25    26    1
    25    26    27    1
    26    27    28    1
    27    28    29    1
    28    29    30    1
    29    30    31    1
    30    31    32    1
    31     5     9   ar
    32    16    11   ar
    33     9     1   ar
    34    24    19   ar
    35     8     4   ar
    36    32    27    1
    37    30    33    1
@<TRIPOS>MOLECULE
*****
 33 37 0 0 0
SMALL
GASTEIGER

@<TRIPOS>ATOM
      1 C         141.7601  138.6816  160.3669 C.ar    1  UNL1        0.0670
      2 C         142.8764  137.8099  159.8730 C.ar    1  UNL1        0.0191
      3 C         142.8269  137.2423  158.4855 C.ar    1  UNL1        0.0203
      4 C         141.6611  137.5464  157.5918 C.ar    1  UNL1        0.0795
      5 C         140.5449  138.4181  158.0857 C.ar    1  UNL1        0.0396
      6 C         139.5327  138.5427  156.9858 C.ar    1  UNL1        0.1216
      7 N         140.0234  137.7480  155.8120 N.ar    1  UNL1       -0.1677
      8 N         141.3389  137.1322  156.1866 N.ar    1  UNL1       -0.2494
      9 C         140.5944  138.9857  159.4733 C.ar    1  UNL1        0.0207
     10 O         140.8437  137.0292  162.6971 O.2     1  UNL1       -0.2665
     11 C         141.3514  138.4231  162.9196 C.ar    1  UNL1        0.2679
     12 C         141.4008  138.9908  164.3071 C.ar    1  UNL1        0.0980
     13 C         141.9084  140.3847  164.5296 C.ar    1  UNL1        0.1453
     14 C         142.3666  141.2109  163.3645 C.ar    1  UNL1        0.0561
     15 C         142.3172  140.6432  161.9769 C.ar    1  UNL1        0.0860
     16 N         141.8096  139.2493  161.7545 N.ar    1  UNL1       -0.2729
     17 O         141.9578  140.9523  165.9172 O.3     1  UNL1       -0.4704
     18 C         140.7005  141.4417  166.5724 C.3     1  UNL1        0.2320
     19 C         139.7328  142.2885  165.8000 C.ar    1  UNL1        0.0212
     20 C         139.8603  143.7829  165.8219 C.ar    1  UNL1       -0.0007
     21 C         138.8926  144.6296  165.0495 C.ar    1  UNL1       -0.0002
     22 C         137.7974  143.9819  164.2551 C.ar    1  UNL1       -0.0000
     23 C         137.6699  142.4875  164.2332 C.ar    1  UNL1       -0.0002
     24 C         138.6375  141.6408  165.0056 C.ar    1  UNL1       -0.0007
     25 C         142.1837  136.2561  155.3098 C.3     1  UNL1        0.1447
     26 C         141.8591  134.7983  155.1707 C.3     1  UNL1        0.0988
     27 N         142.5805  133.7858  156.0101 N.3     1  UNL1       -0.2686
     28 C         142.1871  132.3398  155.9442 C.3     1  UNL1        0.0895
     29 C         142.9084  131.3273  156.7835 C.3     1  UNL1        0.0862
     30 N         144.0230  131.7608  157.6889 N.3     1  UNL1       -0.2951
     31 C         144.4163  133.2068  157.7549 C.3     1  UNL1        0.0862
     32 C         143.6951  134.2193  156.9155 C.3     1  UNL1        0.0895
     33 H         144.8535  131.2425  157.4025 H       1  UNL1        0.1233
@<TRIPOS>BOND
     1    10    11    2
     2    11    12   ar
     3    12    13   ar
     4    13    17    1
     5    17    18    1
     6    18    19    1
     7    19    20   ar
     8    20    21   ar
     9    21    22   ar
    10    22    23   ar
    11    23    24   ar
    12    13    14   ar
    13    14    15   ar
    14    15    16   ar
    15    16     1    1
    16     1     2   ar
    17     2     3   ar
    18     3     4   ar
    19     4     5   ar
    20     5     6   ar
    21     6     7   ar
    22     7     8   ar
    23     8    25    1
    24    25    26    1
    25    26    27    1
    26    27    28    1
    27    28    29    1
    28    29    30    1
    29    30    31    1
    30    31    32    1
    31     5     9   ar
    32    16    11   ar
    33     9     1   ar
    34    24    19   ar
    35     8     4   ar
    36    32    27    1
    37    30    33    1
@<TRIPOS>MOLECULE
*****
 33 37 0 0 0
SMALL
GASTEIGER

@<TRIPOS>ATOM
      1 C         140.5056  138.9784  160.5590 C.ar    1  UNL1        0.0670
      2 C         140.7381  140.4264  160.8737 C.ar    1  UNL1        0.0191
      3 C         140.3654  140.9703  162.2210 C.ar    1  UNL1        0.0203
      4 C         139.7602  140.0661  163.2536 C.ar    1  UNL1        0.0795
      5 C         139.5277  138.6181  162.9389 C.ar    1  UNL1        0.0396
      6 C         138.9189  137.9728  164.1484 C.ar    1  UNL1        0.1216
      7 N         138.7751  139.0220  165.2107 N.ar    1  UNL1       -0.1677
      8 N         139.2950  140.3158  164.6577 N.ar    1  UNL1       -0.2494
      9 C         139.9004  138.0742  161.5916 C.ar    1  UNL1        0.0207
     10 O         143.3530  138.2342  159.9772 O.2     1  UNL1       -0.2665
     11 C         142.3020  138.0624  158.9208 C.ar    1  UNL1        0.2679
     12 C         142.6748  137.5184  157.5735 C.ar    1  UNL1        0.0980
     13 C         141.6238  137.3466  156.5170 C.ar    1  UNL1        0.1453
     14 C         140.2001  137.7187  156.8079 C.ar    1  UNL1        0.0561
     15 C         139.8274  138.2626  158.1553 C.ar    1  UNL1        0.0860
     16 N         140.8783  138.4344  159.2117 N.ar    1  UNL1       -0.2729
     17 O         141.9966  136.8027  155.1698 O.3     1  UNL1       -0.4704
     18 C         143.1425  135.8437  155.0390 C.3     1  UNL1        0.2320
     19 C         143.0089  134.4409  155.5534 C.ar    1  UNL1        0.0212
     20 C         141.9972  133.5134  154.9484 C.ar    1  UNL1       -0.0007
     21 C         141.8637  132.1107  155.4627 C.ar    1  UNL1       -0.0002
     22 C         142.7419  131.6355  156.5821 C.ar    1  UNL1       -0.0000
     23 C         143.7537  132.5630  157.1871 C.ar    1  UNL1       -0.0002
     24 C         143.8871  133.9657  156.6727 C.ar    1  UNL1       -0.0007
     25 C         139.3417  141.6287  165.3816 C.3     1  UNL1        0.1447
     26 C         138.6337  142.8234  164.8145 C.3     1  UNL1        0.0988
     27 N         139.4112  143.8819  164.0900 N.3     1  UNL1       -0.2686
     28 C         138.7574  144.6788  163.0003 C.3     1  UNL1        0.0895
     29 C         139.5348  145.7374  162.2757 C.3     1  UNL1        0.0862
     30 N         140.9659  145.9991  162.6409 N.3     1  UNL1       -0.2951
     31 C         141.6197  145.2022  163.7307 C.3     1  UNL1        0.0862
     32 C         140.8423  144.1436  164.4552 C.3     1  UNL1        0.0895
     33 H         141.0248  146.9793  162.9170 H       1  UNL1        0.1233
@<TRIPOS>BOND
     1    10    11    2
     2    11    12   ar
     3    12    13   ar
     4    13    17    1
     5    17    18    1
     6    18    19    1
     7    19    20   ar
     8    20    21   ar
     9    21    22   ar
    10    22    23   ar
    11    23    24   ar
    12    13    14   ar
    13    14    15   ar
    14    15    16   ar
    15    16     1    1
    16     1     2   ar
    17     2     3   ar
    18     3     4   ar
    19     4     5   ar
    20     5     6   ar
    21     6     7   ar
    22     7     8   ar
    23     8    25    1
    24    25    26    1
    25    26    27    1
    26    27    28    1
    27    28    29    1
    28    29    30    1
    29    30    31    1
    30    31    32    1
    31     5     9   ar
    32    16    11   ar
    33     9     1   ar
    34    24    19   ar
    35     8     4   ar
    36    32    27    1
    37    30    33    1
@<TRIPOS>MOLECULE
*****
 33 37 0 0 0
SMALL
GASTEIGER

@<TRIPOS>ATOM
      1 C         140.1771  143.9753  161.3584 C.ar    1  UNL1        0.0670
      2 C         140.3913  145.3951  160.9246 C.ar    1  UNL1        0.0191
      3 C         140.3362  145.7508  159.4685 C.ar    1  UNL1        0.0203
      4 C         140.0670  144.6867  158.4461 C.ar    1  UNL1        0.0795
      5 C         139.8529  143.2669  158.8800 C.ar    1  UNL1        0.0396
      6 C         139.6087  142.4392  157.6531 C.ar    1  UNL1        0.1216
      7 N         139.6719  143.3474  156.4610 N.ar    1  UNL1       -0.1677
      8 N         139.9552  144.7365  156.9511 N.ar    1  UNL1       -0.2494
      9 C         139.9079  142.9112  160.3361 C.ar    1  UNL1        0.0207
     10 O         137.6423  143.7751  162.9504 O.2     1  UNL1       -0.2665
     11 C         138.9647  143.5195  163.6106 C.ar    1  UNL1        0.2679
     12 C         139.0197  143.1638  165.0668 C.ar    1  UNL1        0.0980
     13 C         140.3422  142.9081  165.7270 C.ar    1  UNL1        0.1453
     14 C         141.6096  143.0083  164.9310 C.ar    1  UNL1        0.0561
     15 C         141.5546  143.3640  163.4748 C.ar    1  UNL1        0.0860
     16 N         140.2322  143.6196  162.8147 N.ar    1  UNL1       -0.2729
     17 O         140.3972  142.5524  167.1832 O.3     1  UNL1       -0.4704
     18 C         140.6947  141.1426  167.6000 C.3     1  UNL1        0.2320
     19 C         140.1235  139.9941  166.8224 C.ar    1  UNL1        0.0212
     20 C         140.9310  139.3490  165.7353 C.ar    1  UNL1       -0.0007
     21 C         140.3598  138.2005  164.9577 C.ar    1  UNL1       -0.0002
     22 C         138.9811  137.6972  165.2672 C.ar    1  UNL1       -0.0000
     23 C         138.1736  138.3423  166.3542 C.ar    1  UNL1       -0.0002
     24 C         138.7448  139.4908  167.1318 C.ar    1  UNL1       -0.0007
     25 C         140.1010  145.9604  156.0963 C.3     1  UNL1        0.1447
     26 C         138.9549  146.9178  155.9556 C.3     1  UNL1        0.0988
     27 N         139.1627  148.2430  155.2843 N.3     1  UNL1       -0.2686
     28 C         138.5409  149.4808  155.8597 C.3     1  UNL1        0.0895
     29 C         138.7486  150.8061  155.1885 C.3     1  UNL1        0.0862
     30 N         139.5781  150.8934  153.9417 N.3     1  UNL1       -0.2951
     31 C         140.1999  149.6556  153.3663 C.3     1  UNL1        0.0862
     32 C         139.9921  148.3304  154.0375 C.3     1  UNL1        0.0895
     33 H         140.3407  151.5410  154.1403 H       1  UNL1        0.1233
@<TRIPOS>BOND
     1    10    11    2
     2    11    12   ar
     3    12    13   ar
     4    13    17    1
     5    17    18    1
     6    18    19    1
     7    19    20   ar
     8    20    21   ar
     9    21    22   ar
    10    22    23   ar
    11    23    24   ar
    12    13    14   ar
    13    14    15   ar
    14    15    16   ar
    15    16     1    1
    16     1     2   ar
    17     2     3   ar
    18     3     4   ar
    19     4     5   ar
    20     5     6   ar
    21     6     7   ar
    22     7     8   ar
    23     8    25    1
    24    25    26    1
    25    26    27    1
    26    27    28    1
    27    28    29    1
    28    29    30    1
    29    30    31    1
    30    31    32    1
    31     5     9   ar
    32    16    11   ar
    33     9     1   ar
    34    24    19   ar
    35     8     4   ar
    36    32    27    1
    37    30    33    1
@<TRIPOS>MOLECULE
*****
 33 37 0 0 0
SMALL
GASTEIGER

@<TRIPOS>ATOM
      1 C         142.0746  138.5492  161.2185 C.ar    1  UNL1        0.0670
      2 C         143.1302  137.8403  160.4228 C.ar    1  UNL1        0.0191
      3 C         142.9074  137.5559  158.9670 C.ar    1  UNL1        0.0203
      4 C         141.6291  137.9804  158.3069 C.ar    1  UNL1        0.0795
      5 C         140.5735  138.6892  159.1027 C.ar    1  UNL1        0.0396
      6 C         139.4231  138.9851  158.1867 C.ar    1  UNL1        0.1216
      7 N         139.7677  138.4591  156.8248 N.ar    1  UNL1       -0.1677
      8 N         141.1311  137.8382  156.8991 N.ar    1  UNL1       -0.2494
      9 C         140.7962  138.9736  160.5585 C.ar    1  UNL1        0.0207
     10 O         140.8955  136.7370  163.2984 O.2     1  UNL1       -0.2665
     11 C         141.7078  137.9275  163.7144 C.ar    1  UNL1        0.2679
     12 C         141.9304  138.2119  165.1702 C.ar    1  UNL1        0.0980
     13 C         142.7427  139.4024  165.5862 C.ar    1  UNL1        0.1453
     14 C         143.3323  140.3085  164.5463 C.ar    1  UNL1        0.0561
     15 C         143.1096  140.0240  163.0903 C.ar    1  UNL1        0.0860
     16 N         142.2973  138.8336  162.6744 N.ar    1  UNL1       -0.2729
     17 O         142.9654  139.6868  167.0420 O.3     1  UNL1       -0.4704
     18 C         142.7637  141.0745  167.5745 C.3     1  UNL1        0.2320
     19 C         141.6221  141.3626  168.5039 C.ar    1  UNL1        0.0212
     20 C         140.6908  140.2600  168.9124 C.ar    1  UNL1       -0.0007
     21 C         139.5493  140.5481  169.8418 C.ar    1  UNL1       -0.0002
     22 C         139.3390  141.9390  170.3627 C.ar    1  UNL1       -0.0000
     23 C         140.2702  143.0416  169.9542 C.ar    1  UNL1       -0.0002
     24 C         141.4118  142.7535  169.0248 C.ar    1  UNL1       -0.0007
     25 C         141.8672  137.1890  155.7648 C.3     1  UNL1        0.1447
     26 C         141.5060  135.7982  155.3345 C.3     1  UNL1        0.0988
     27 N         142.1585  134.6171  155.9897 N.3     1  UNL1       -0.2686
     28 C         143.2314  134.8271  157.0167 C.3     1  UNL1        0.0895
     29 C         143.8839  133.6461  157.6719 C.3     1  UNL1        0.0862
     30 N         143.4636  132.2551  157.3001 N.3     1  UNL1       -0.2951
     31 C         142.3907  132.0450  156.2730 C.3     1  UNL1        0.0862
     32 C         141.7381  133.2261  155.6178 C.3     1  UNL1        0.0895
     33 H         143.1426  131.8054  158.1575 H       1  UNL1        0.1233
@<TRIPOS>BOND
     1    10    11    2
     2    11    12   ar
     3    12    13   ar
     4    13    17    1
     5    17    18    1
     6    18    19    1
     7    19    20   ar
     8    20    21   ar
     9    21    22   ar
    10    22    23   ar
    11    23    24   ar
    12    13    14   ar
    13    14    15   ar
    14    15    16   ar
    15    16     1    1
    16     1     2   ar
    17     2     3   ar
    18     3     4   ar
    19     4     5   ar
    20     5     6   ar
    21     6     7   ar
    22     7     8   ar
    23     8    25    1
    24    25    26    1
    25    26    27    1
    26    27    28    1
    27    28    29    1
    28    29    30    1
    29    30    31    1
    30    31    32    1
    31     5     9   ar
    32    16    11   ar
    33     9     1   ar
    34    24    19   ar
    35     8     4   ar
    36    32    27    1
    37    30    33    1
@<TRIPOS>MOLECULE
*****
 33 37 0 0 0
SMALL
GASTEIGER

@<TRIPOS>ATOM
      1 C         140.5447  138.6683  160.0604 C.ar    1  UNL1        0.0670
      2 C         141.9348  138.1586  159.8206 C.ar    1  UNL1        0.0191
      3 C         142.3889  137.8464  158.4255 C.ar    1  UNL1        0.0203
      4 C         141.4527  138.0438  157.2702 C.ar    1  UNL1        0.0795
      5 C         140.0626  138.5535  157.5100 C.ar    1  UNL1        0.0396
      6 C         139.3683  138.6479  156.1837 C.ar    1  UNL1        0.1216
      7 N         140.3294  138.1966  155.1242 N.ar    1  UNL1       -0.1677
      8 N         141.6177  137.8232  155.7957 N.ar    1  UNL1       -0.2494
      9 C         139.6085  138.8657  158.9051 C.ar    1  UNL1        0.0207
     10 O         141.2000  141.3242  161.2919 O.2     1  UNL1       -0.2665
     11 C         140.4182  140.3086  162.0713 C.ar    1  UNL1        0.2679
     12 C         139.9642  140.6209  163.4663 C.ar    1  UNL1        0.0980
     13 C         139.1824  139.6052  164.2457 C.ar    1  UNL1        0.1453
     14 C         138.8547  138.2773  163.6299 C.ar    1  UNL1        0.0561
     15 C         139.3088  137.9650  162.2348 C.ar    1  UNL1        0.0860
     16 N         140.0906  138.9806  161.4555 N.ar    1  UNL1       -0.2729
     17 O         138.7283  139.9175  165.6408 O.3     1  UNL1       -0.4704
     18 C         139.5042  140.8866  166.4827 C.3     1  UNL1        0.2320
     19 C         140.3483  140.3861  167.6172 C.ar    1  UNL1        0.0212
     20 C         141.7641  139.9585  167.3667 C.ar    1  UNL1       -0.0007
     21 C         142.6082  139.4580  168.5011 C.ar    1  UNL1       -0.0002
     22 C         142.0365  139.3851  169.8860 C.ar    1  UNL1       -0.0000
     23 C         140.6208  139.8127  170.1365 C.ar    1  UNL1       -0.0002
     24 C         139.7767  140.3132  169.0020 C.ar    1  UNL1       -0.0007
     25 C         142.8539  137.3180  155.1126 C.3     1  UNL1        0.1447
     26 C         142.8840  135.9287  154.5477 C.3     1  UNL1        0.0988
     27 N         142.8716  134.7444  155.4680 N.3     1  UNL1       -0.2686
     28 C         142.1828  133.4785  155.0520 C.3     1  UNL1        0.0895
     29 C         142.1703  132.2941  155.9723 C.3     1  UNL1        0.0862
     30 N         142.8467  132.3755  157.3086 N.3     1  UNL1       -0.2951
     31 C         143.5355  133.6414  157.7247 C.3     1  UNL1        0.0862
     32 C         143.5479  134.8258  156.8044 C.3     1  UNL1        0.0895
     33 H         143.5504  131.6374  157.3280 H       1  UNL1        0.1233
@<TRIPOS>BOND
     1    10    11    2
     2    11    12   ar
     3    12    13   ar
     4    13    17    1
     5    17    18    1
     6    18    19    1
     7    19    20   ar
     8    20    21   ar
     9    21    22   ar
    10    22    23   ar
    11    23    24   ar
    12    13    14   ar
    13    14    15   ar
    14    15    16   ar
    15    16     1    1
    16     1     2   ar
    17     2     3   ar
    18     3     4   ar
    19     4     5   ar
    20     5     6   ar
    21     6     7   ar
    22     7     8   ar
    23     8    25    1
    24    25    26    1
    25    26    27    1
    26    27    28    1
    27    28    29    1
    28    29    30    1
    29    30    31    1
    30    31    32    1
    31     5     9   ar
    32    16    11   ar
    33     9     1   ar
    34    24    19   ar
    35     8     4   ar
    36    32    27    1
    37    30    33    1
@<TRIPOS>MOLECULE
*****
 33 37 0 0 0
SMALL
GASTEIGER

@<TRIPOS>ATOM
      1 C         140.6801  138.9596  161.5723 C.ar    1  UNL1        0.0670
      2 C         141.1805  140.2779  162.0838 C.ar    1  UNL1        0.0191
      3 C         140.8812  140.6983  163.4922 C.ar    1  UNL1        0.0203
      4 C         140.0816  139.8004  164.3891 C.ar    1  UNL1        0.0795
      5 C         139.5812  138.4821  163.8775 C.ar    1  UNL1        0.0396
      6 C         138.8232  137.8126  164.9853 C.ar    1  UNL1        0.1216
      7 N         138.8551  138.7172  166.1815 N.ar    1  UNL1       -0.1677
      8 N         139.6328  139.9457  165.8130 N.ar    1  UNL1       -0.2494
      9 C         139.8804  138.0617  162.4691 C.ar    1  UNL1        0.0207
     10 O         138.5531  139.1520  159.4654 O.2     1  UNL1       -0.2665
     11 C         139.9158  138.6353  159.1104 C.ar    1  UNL1        0.2679
     12 C         140.2150  138.2149  157.7020 C.ar    1  UNL1        0.0980
     13 C         141.5778  137.6982  157.3469 C.ar    1  UNL1        0.1453
     14 C         142.6413  137.6019  158.4003 C.ar    1  UNL1        0.0561
     15 C         142.3420  138.0224  159.8088 C.ar    1  UNL1        0.0860
     16 N         140.9793  138.5391  160.1638 N.ar    1  UNL1       -0.2729
     17 O         141.8770  137.2777  155.9385 O.3     1  UNL1       -0.4704
     18 C         141.2976  136.0046  155.3968 C.3     1  UNL1        0.2320
     19 C         141.9775  134.6956  155.6694 C.ar    1  UNL1        0.0212
     20 C         143.3250  134.6731  156.3279 C.ar    1  UNL1       -0.0007
     21 C         144.0048  133.3641  156.6005 C.ar    1  UNL1       -0.0002
     22 C         143.3372  132.0776  156.2145 C.ar    1  UNL1       -0.0000
     23 C         141.9897  132.1000  155.5559 C.ar    1  UNL1       -0.0002
     24 C         141.3099  133.4090  155.2834 C.ar    1  UNL1       -0.0007
     25 C         139.9127  141.1143  166.7108 C.3     1  UNL1        0.1447
     26 C         141.3022  141.3495  167.2246 C.3     1  UNL1        0.0988
     27 N         141.5274  141.6154  168.6835 N.3     1  UNL1       -0.2686
     28 C         140.6981  140.9052  169.7120 C.3     1  UNL1        0.0895
     29 C         140.9233  141.1711  171.1710 C.3     1  UNL1        0.0862
     30 N         141.9778  142.1472  171.6014 N.3     1  UNL1       -0.2951
     31 C         142.8071  142.8574  170.5729 C.3     1  UNL1        0.0862
     32 C         142.5819  142.5915  169.1139 C.3     1  UNL1        0.0895
     33 H         142.6260  141.6354  172.2001 H       1  UNL1        0.1233
@<TRIPOS>BOND
     1    10    11    2
     2    11    12   ar
     3    12    13   ar
     4    13    17    1
     5    17    18    1
     6    18    19    1
     7    19    20   ar
     8    20    21   ar
     9    21    22   ar
    10    22    23   ar
    11    23    24   ar
    12    13    14   ar
    13    14    15   ar
    14    15    16   ar
    15    16     1    1
    16     1     2   ar
    17     2     3   ar
    18     3     4   ar
    19     4     5   ar
    20     5     6   ar
    21     6     7   ar
    22     7     8   ar
    23     8    25    1
    24    25    26    1
    25    26    27    1
    26    27    28    1
    27    28    29    1
    28    29    30    1
    29    30    31    1
    30    31    32    1
    31     5     9   ar
    32    16    11   ar
    33     9     1   ar
    34    24    19   ar
    35     8     4   ar
    36    32    27    1
    37    30    33    1
