@<TRIPOS>MOLECULE
*****
 34 37 0 0 0
SMALL
GASTEIGER

@<TRIPOS>ATOM
      1 O         139.6284  140.1056  157.2301 O.2     1  UNL1       -0.2522
      2 C         138.5663  140.1045  158.2894 C.2     1  UNL1        0.3078
      3 N         137.2464  140.7678  158.0287 N.am    1  UNL1       -0.2681
      4 N         138.8242  139.4402  159.6093 N.am    1  UNL1       -0.2611
      5 C         140.1441  138.7769  159.8700 C.3     1  UNL1        0.1123
      6 C         140.4019  138.1126  161.1899 C.3     1  UNL1        0.0940
      7 N         139.3398  138.1115  162.2491 N.3     1  UNL1       -0.2697
      8 C         138.0199  138.7748  161.9885 C.3     1  UNL1        0.0940
      9 C         137.7621  139.4391  160.6686 C.3     1  UNL1        0.1123
     10 H         136.5494  140.7670  158.7239 H       1  UNL1        0.1564
     11 C         136.9886  141.4321  156.7088 C.ar    1  UNL1        0.0525
     12 C         136.3848  140.6496  155.5805 C.ar    1  UNL1        0.0156
     13 C         136.1270  141.3139  154.2606 C.ar    1  UNL1        0.0135
     14 C         136.4729  142.7609  154.0690 C.ar    1  UNL1        0.0683
     15 CL        136.2150  143.4252  152.7491 Cl      1  UNL1       -0.0814
     16 C         137.0766  143.5434  155.1973 C.ar    1  UNL1        0.0694
     17 CL        137.4225  144.9904  155.0057 Cl      1  UNL1       -0.0813
     18 C         137.3344  142.8791  156.5172 C.ar    1  UNL1        0.0270
     19 C         139.5977  137.4472  163.5691 C.3     1  UNL1        0.0735
     20 C         139.5003  138.2392  164.8391 C.3     1  UNL1        0.0320
     21 C         138.2990  138.0911  165.7251 C.3     1  UNL1        0.0042
     22 C         138.2015  138.8832  166.9952 C.3     1  UNL1        0.0174
     23 C         139.3054  139.8235  167.3792 C.3     1  UNL1        0.0721
     24 N         140.5067  139.9716  166.4932 N.3     1  UNL1       -0.2726
     25 C         140.6041  139.1795  165.2231 C.3     1  UNL1        0.0734
     26 C         141.6105  140.9118  166.8773 C.3     1  UNL1        0.0724
     27 C         141.5104  142.3677  166.5302 C.3     1  UNL1        0.0220
     28 C         140.1791  143.0579  166.5679 C.3     1  UNL1        0.0278
     29 C         139.4278  143.3082  165.2940 C.ar    1  UNL1       -0.0221
     30 C         139.6804  144.5606  164.5080 C.ar    1  UNL1       -0.0043
     31 C         138.9290  144.8109  163.2340 C.ar    1  UNL1       -0.0003
     32 C         137.9252  143.8088  162.7461 C.ar    1  UNL1       -0.0000
     33 C         137.6726  142.5564  163.5321 C.ar    1  UNL1       -0.0003
     34 C         138.4239  142.3061  164.8060 C.ar    1  UNL1       -0.0043
@<TRIPOS>BOND
     1     1     2    2
     2     2     3   am
     3     3    11    1
     4    11    12   ar
     5    12    13   ar
     6    13    14   ar
     7    14    15    1
     8    14    16   ar
     9    16    17    1
    10    16    18   ar
    11     2     4   am
    12     4     5    1
    13     5     6    1
    14     6     7    1
    15     7    19    1
    16    20    19    1
    17    20    21    1
    18    21    22    1
    19    22    23    1
    20    23    24    1
    21    24    26    1
    22    26    27    1
    23    27    28    1
    24    28    29    1
    25    29    30   ar
    26    30    31   ar
    27    31    32   ar
    28    32    33   ar
    29    33    34   ar
    30    24    25    1
    31     7     8    1
    32     8     9    1
    33    18    11   ar
    34     9     4    1
    35    25    20    1
    36    34    29   ar
    37     3    10    1
@<TRIPOS>MOLECULE
*****
 34 37 0 0 0
SMALL
GASTEIGER

@<TRIPOS>ATOM
      1 O         144.2297  138.0038  155.9495 O.2     1  UNL1       -0.2522
      2 C         143.1504  138.0551  156.9900 C.2     1  UNL1        0.3078
      3 N         142.3041  136.8449  157.2530 N.am    1  UNL1       -0.2681
      4 N         142.9176  139.3166  157.7675 N.am    1  UNL1       -0.2611
      5 C         143.7639  140.5267  157.5045 C.3     1  UNL1        0.1123
      6 C         143.5310  141.7881  158.2820 C.3     1  UNL1        0.0940
      7 N         142.4518  141.8394  159.3224 N.3     1  UNL1       -0.2697
      8 C         141.6054  140.6293  159.5854 C.3     1  UNL1        0.0940
      9 C         141.8383  139.3679  158.8080 C.3     1  UNL1        0.1123
     10 H         141.5957  136.8786  157.9359 H       1  UNL1        0.1564
     11 C         142.5370  135.5834  156.4755 C.ar    1  UNL1        0.0525
     12 C         141.7312  135.3033  155.2417 C.ar    1  UNL1        0.0156
     13 C         141.9641  134.0418  154.4643 C.ar    1  UNL1        0.0135
     14 C         143.0027  133.0605  154.9206 C.ar    1  UNL1        0.0683
     15 CL        143.2356  131.7990  154.1431 Cl      1  UNL1       -0.0814
     16 C         143.8085  133.3407  156.1544 C.ar    1  UNL1        0.0694
     17 CL        144.8471  132.3593  156.6108 Cl      1  UNL1       -0.0813
     18 C         143.5756  134.6021  156.9318 C.ar    1  UNL1        0.0270
     19 C         142.2189  143.1010  160.0999 C.3     1  UNL1        0.0735
     20 C         142.8987  143.3037  161.4215 C.3     1  UNL1        0.0320
     21 C         142.5199  144.4673  162.2891 C.3     1  UNL1        0.0042
     22 C         143.1998  144.6700  163.6107 C.3     1  UNL1        0.0174
     23 C         144.2585  143.7093  164.0648 C.3     1  UNL1        0.0721
     24 N         144.6373  142.5457  163.1972 N.3     1  UNL1       -0.2726
     25 C         143.9574  142.3430  161.8756 C.3     1  UNL1        0.0734
     26 C         145.6959  141.5850  163.6512 C.3     1  UNL1        0.0724
     27 C         145.3158  140.2003  164.0852 C.3     1  UNL1        0.0220
     28 C         144.0370  139.9740  164.8357 C.3     1  UNL1        0.0278
     29 C         143.0042  139.0324  164.2909 C.ar    1  UNL1       -0.0221
     30 C         142.9117  138.7943  162.8129 C.ar    1  UNL1       -0.0043
     31 C         141.8789  137.8527  162.2681 C.ar    1  UNL1       -0.0003
     32 C         140.9387  137.1492  163.2014 C.ar    1  UNL1       -0.0000
     33 C         141.0313  137.3873  164.6795 C.ar    1  UNL1       -0.0003
     34 C         142.0640  138.3289  165.2243 C.ar    1  UNL1       -0.0043
@<TRIPOS>BOND
     1     1     2    2
     2     2     3   am
     3     3    11    1
     4    11    12   ar
     5    12    13   ar
     6    13    14   ar
     7    14    15    1
     8    14    16   ar
     9    16    17    1
    10    16    18   ar
    11     2     4   am
    12     4     5    1
    13     5     6    1
    14     6     7    1
    15     7    19    1
    16    20    19    1
    17    20    21    1
    18    21    22    1
    19    22    23    1
    20    23    24    1
    21    24    26    1
    22    26    27    1
    23    27    28    1
    24    28    29    1
    25    29    30   ar
    26    30    31   ar
    27    31    32   ar
    28    32    33   ar
    29    33    34   ar
    30    24    25    1
    31     7     8    1
    32     8     9    1
    33    18    11   ar
    34     9     4    1
    35    25    20    1
    36    34    29   ar
    37     3    10    1
@<TRIPOS>MOLECULE
*****
 34 37 0 0 0
SMALL
GASTEIGER

@<TRIPOS>ATOM
      1 O         139.5957  140.1504  157.2213 O.2     1  UNL1       -0.2522
      2 C         138.4961  140.1583  158.2415 C.2     1  UNL1        0.3078
      3 N         137.1896  140.8263  157.9308 N.am    1  UNL1       -0.2681
      4 N         138.7032  139.4981  159.5725 N.am    1  UNL1       -0.2611
      5 C         140.0097  138.8301  159.8832 C.3     1  UNL1        0.1123
      6 C         140.2167  138.1700  161.2141 C.3     1  UNL1        0.0940
      7 N         139.1171  138.1779  162.2343 N.3     1  UNL1       -0.2697
      8 C         137.8105  138.8459  161.9236 C.3     1  UNL1        0.0940
      9 C         137.6035  139.5060  160.5927 C.3     1  UNL1        0.1123
     10 H         136.4679  140.8315  158.6004 H       1  UNL1        0.1564
     11 C         136.9825  141.4865  156.5999 C.ar    1  UNL1        0.0525
     12 C         136.4574  140.6910  155.4417 C.ar    1  UNL1        0.0156
     13 C         136.2505  141.3511  154.1108 C.ar    1  UNL1        0.0135
     14 C         136.5686  142.8068  153.9381 C.ar    1  UNL1        0.0683
     15 CL        136.3615  143.4670  152.6071 Cl      1  UNL1       -0.0814
     16 C         137.0937  143.6023  155.0963 C.ar    1  UNL1        0.0694
     17 CL        137.4118  145.0580  154.9236 Cl      1  UNL1       -0.0813
     18 C         137.3007  142.9421  156.4272 C.ar    1  UNL1        0.0270
     19 C         139.3241  137.5177  163.5653 C.3     1  UNL1        0.0735
     20 C         140.2891  138.1053  164.5519 C.3     1  UNL1        0.0320
     21 C         141.7228  137.6644  164.5524 C.3     1  UNL1        0.0042
     22 C         142.6878  138.2519  165.5390 C.3     1  UNL1        0.0174
     23 C         142.2191  139.2805  166.5252 C.3     1  UNL1        0.0721
     24 N         140.7854  139.7214  166.5247 N.3     1  UNL1       -0.2726
     25 C         139.8204  139.1337  165.5380 C.3     1  UNL1        0.0734
     26 C         140.3167  140.7498  167.5108 C.3     1  UNL1        0.0724
     27 C         140.3014  142.2009  167.1310 C.3     1  UNL1        0.0220
     28 C         140.2836  142.5974  165.6845 C.3     1  UNL1        0.0278
     29 C         141.4523  143.3280  165.0927 C.ar    1  UNL1       -0.0221
     30 C         142.8483  142.8432  165.3502 C.ar    1  UNL1       -0.0043
     31 C         144.0171  143.5738  164.7584 C.ar    1  UNL1       -0.0003
     32 C         143.7899  144.7891  163.9091 C.ar    1  UNL1       -0.0000
     33 C         142.3939  145.2739  163.6516 C.ar    1  UNL1       -0.0003
     34 C         141.2252  144.5434  164.2434 C.ar    1  UNL1       -0.0043
@<TRIPOS>BOND
     1     1     2    2
     2     2     3   am
     3     3    11    1
     4    11    12   ar
     5    12    13   ar
     6    13    14   ar
     7    14    15    1
     8    14    16   ar
     9    16    17    1
    10    16    18   ar
    11     2     4   am
    12     4     5    1
    13     5     6    1
    14     6     7    1
    15     7    19    1
    16    20    19    1
    17    20    21    1
    18    21    22    1
    19    22    23    1
    20    23    24    1
    21    24    26    1
    22    26    27    1
    23    27    28    1
    24    28    29    1
    25    29    30   ar
    26    30    31   ar
    27    31    32   ar
    28    32    33   ar
    29    33    34   ar
    30    24    25    1
    31     7     8    1
    32     8     9    1
    33    18    11   ar
    34     9     4    1
    35    25    20    1
    36    34    29   ar
    37     3    10    1
@<TRIPOS>MOLECULE
*****
 34 37 0 0 0
SMALL
GASTEIGER

@<TRIPOS>ATOM
      1 O         141.1675  142.2211  158.0960 O.2     1  UNL1       -0.2522
      2 C         142.2469  142.9149  158.8729 C.2     1  UNL1        0.3078
      3 N         142.6731  144.3013  158.4907 N.am    1  UNL1       -0.2681
      4 N         142.9002  142.2222  160.0320 N.am    1  UNL1       -0.2611
      5 C         142.4740  140.8357  160.4142 C.3     1  UNL1        0.1123
      6 C         143.1272  140.1431  161.5733 C.3     1  UNL1        0.0940
      7 N         144.2066  140.8369  162.3502 N.3     1  UNL1       -0.2697
      8 C         144.6328  142.2233  161.9680 C.3     1  UNL1        0.0940
      9 C         143.9795  142.9160  160.8089 C.3     1  UNL1        0.1123
     10 H         143.3815  144.7567  159.0006 H       1  UNL1        0.1564
     11 C         142.0198  144.9940  157.3316 C.ar    1  UNL1        0.0525
     12 C         142.5257  144.7639  155.9384 C.ar    1  UNL1        0.0156
     13 C         141.8724  145.4566  154.7794 C.ar    1  UNL1        0.0135
     14 C         140.7134  146.3795  155.0136 C.ar    1  UNL1        0.0683
     15 CL        140.0601  147.0722  153.8544 Cl      1  UNL1       -0.0814
     16 C         140.2076  146.6097  156.4068 C.ar    1  UNL1        0.0694
     17 CL        139.0485  147.5326  156.6410 Cl      1  UNL1       -0.0813
     18 C         140.8608  145.9170  157.5658 C.ar    1  UNL1        0.0270
     19 C         144.8598  140.1441  163.5093 C.3     1  UNL1        0.0735
     20 C         144.1165  139.9822  164.8020 C.3     1  UNL1        0.0320
     21 C         144.0898  138.6495  165.4899 C.3     1  UNL1        0.0042
     22 C         143.3464  138.4875  166.7826 C.3     1  UNL1        0.0174
     23 C         142.6297  139.6583  167.3875 C.3     1  UNL1        0.0721
     24 N         142.6565  140.9909  166.6996 N.3     1  UNL1       -0.2726
     25 C         143.3999  141.1529  165.4068 C.3     1  UNL1        0.0734
     26 C         141.9398  142.1617  167.3044 C.3     1  UNL1        0.0724
     27 C         140.4506  142.2805  167.1697 C.3     1  UNL1        0.0220
     28 C         139.7763  141.8573  165.8985 C.3     1  UNL1        0.0278
     29 C         139.4544  140.4109  165.6659 C.ar    1  UNL1       -0.0221
     30 C         138.4807  139.7055  166.5628 C.ar    1  UNL1       -0.0043
     31 C         138.1589  138.2590  166.3302 C.ar    1  UNL1       -0.0003
     32 C         138.8106  137.5179  165.2006 C.ar    1  UNL1       -0.0000
     33 C         139.7843  138.2233  164.3037 C.ar    1  UNL1       -0.0003
     34 C         140.1062  139.6697  164.5363 C.ar    1  UNL1       -0.0043
@<TRIPOS>BOND
     1     1     2    2
     2     2     3   am
     3     3    11    1
     4    11    12   ar
     5    12    13   ar
     6    13    14   ar
     7    14    15    1
     8    14    16   ar
     9    16    17    1
    10    16    18   ar
    11     2     4   am
    12     4     5    1
    13     5     6    1
    14     6     7    1
    15     7    19    1
    16    20    19    1
    17    20    21    1
    18    21    22    1
    19    22    23    1
    20    23    24    1
    21    24    26    1
    22    26    27    1
    23    27    28    1
    24    28    29    1
    25    29    30   ar
    26    30    31   ar
    27    31    32   ar
    28    32    33   ar
    29    33    34   ar
    30    24    25    1
    31     7     8    1
    32     8     9    1
    33    18    11   ar
    34     9     4    1
    35    25    20    1
    36    34    29   ar
    37     3    10    1
@<TRIPOS>MOLECULE
*****
 34 37 0 0 0
SMALL
GASTEIGER

@<TRIPOS>ATOM
      1 O         145.2214  140.1985  156.6598 O.2     1  UNL1       -0.2522
      2 C         145.2103  141.4592  157.4725 C.2     1  UNL1        0.3078
      3 N         146.0502  142.6291  157.0534 N.am    1  UNL1       -0.2681
      4 N         144.3591  141.5499  158.7043 N.am    1  UNL1       -0.2611
      5 C         143.5191  140.3800  159.1234 C.3     1  UNL1        0.1123
      6 C         142.6680  140.4707  160.3552 C.3     1  UNL1        0.0940
      7 N         142.6568  141.7314  161.1679 N.3     1  UNL1       -0.2697
      8 C         143.4968  142.9014  160.7488 C.3     1  UNL1        0.0940
      9 C         144.3479  142.8106  159.5170 C.3     1  UNL1        0.1123
     10 H         146.0428  143.4566  157.5869 H       1  UNL1        0.1564
     11 C         146.9014  142.5384  155.8216 C.ar    1  UNL1        0.0525
     12 C         146.3486  142.9673  154.4948 C.ar    1  UNL1        0.0156
     13 C         147.1998  142.8765  153.2631 C.ar    1  UNL1        0.0135
     14 C         148.6037  142.3570  153.3581 C.ar    1  UNL1        0.0683
     15 CL        149.4549  142.2662  152.1263 Cl      1  UNL1       -0.0814
     16 C         149.1565  141.9281  154.6850 C.ar    1  UNL1        0.0694
     17 CL        150.5604  141.4086  154.7801 Cl      1  UNL1       -0.0813
     18 C         148.3053  142.0189  155.9167 C.ar    1  UNL1        0.0270
     19 C         141.8056  141.8221  162.3997 C.3     1  UNL1        0.0735
     20 C         141.7293  140.6607  163.3458 C.3     1  UNL1        0.0320
     21 C         142.9867  140.0725  163.9143 C.3     1  UNL1        0.0042
     22 C         142.9103  138.9110  164.8604 C.3     1  UNL1        0.0174
     23 C         141.5766  138.3377  165.2381 C.3     1  UNL1        0.0721
     24 N         140.3193  138.9259  164.6696 N.3     1  UNL1       -0.2726
     25 C         140.3957  140.0874  163.7235 C.3     1  UNL1        0.0734
     26 C         138.9856  138.3527  165.0473 C.3     1  UNL1        0.0724
     27 C         138.1456  139.0306  166.0888 C.3     1  UNL1        0.0220
     28 C         138.5901  139.0400  167.5214 C.3     1  UNL1        0.0278
     29 C         139.2512  140.2588  168.0935 C.ar    1  UNL1       -0.0221
     30 C         139.1979  140.5177  169.5700 C.ar    1  UNL1       -0.0043
     31 C         139.8590  141.7366  170.1421 C.ar    1  UNL1       -0.0003
     32 C         140.5735  142.6965  169.2377 C.ar    1  UNL1       -0.0000
     33 C         140.6269  142.4377  167.7612 C.ar    1  UNL1       -0.0003
     34 C         139.9657  141.2188  167.1891 C.ar    1  UNL1       -0.0043
@<TRIPOS>BOND
     1     1     2    2
     2     2     3   am
     3     3    11    1
     4    11    12   ar
     5    12    13   ar
     6    13    14   ar
     7    14    15    1
     8    14    16   ar
     9    16    17    1
    10    16    18   ar
    11     2     4   am
    12     4     5    1
    13     5     6    1
    14     6     7    1
    15     7    19    1
    16    20    19    1
    17    20    21    1
    18    21    22    1
    19    22    23    1
    20    23    24    1
    21    24    26    1
    22    26    27    1
    23    27    28    1
    24    28    29    1
    25    29    30   ar
    26    30    31   ar
    27    31    32   ar
    28    32    33   ar
    29    33    34   ar
    30    24    25    1
    31     7     8    1
    32     8     9    1
    33    18    11   ar
    34     9     4    1
    35    25    20    1
    36    34    29   ar
    37     3    10    1
@<TRIPOS>MOLECULE
*****
 34 37 0 0 0
SMALL
GASTEIGER

@<TRIPOS>ATOM
      1 O         143.2752  139.6457  157.6939 O.2     1  UNL1       -0.2522
      2 C         143.1200  138.6438  158.7994 C.2     1  UNL1        0.3078
      3 N         142.6982  137.2391  158.4847 N.am    1  UNL1       -0.2681
      4 N         143.3866  139.0465  160.2195 N.am    1  UNL1       -0.2611
      5 C         143.8084  140.4512  160.5342 C.3     1  UNL1        0.1123
      6 C         144.0750  140.8539  161.9543 C.3     1  UNL1        0.0940
      7 N         143.9198  139.8519  163.0597 N.3     1  UNL1       -0.2697
      8 C         143.4980  138.4473  162.7451 C.3     1  UNL1        0.0940
      9 C         143.2314  138.0446  161.3250 C.3     1  UNL1        0.1123
     10 H         142.5964  136.5815  159.2103 H       1  UNL1        0.1564
     11 C         142.4316  136.8364  157.0645 C.ar    1  UNL1        0.0525
     12 C         143.5220  136.2131  156.2444 C.ar    1  UNL1        0.0156
     13 C         143.2554  135.8104  154.8243 C.ar    1  UNL1        0.0135
     14 C         141.8984  136.0310  154.2244 C.ar    1  UNL1        0.0683
     15 CL        141.6318  135.6282  152.8042 Cl      1  UNL1       -0.0814
     16 C         140.8080  136.6542  155.0445 C.ar    1  UNL1        0.0694
     17 CL        139.4510  136.8747  154.4445 Cl      1  UNL1       -0.0813
     18 C         141.0747  137.0569  156.4646 C.ar    1  UNL1        0.0270
     19 C         144.1864  140.2547  164.4799 C.3     1  UNL1        0.0735
     20 C         143.0415  140.5371  165.4069 C.3     1  UNL1        0.0320
     21 C         142.8687  139.7234  166.6551 C.3     1  UNL1        0.0042
     22 C         141.7238  140.0059  167.5821 C.3     1  UNL1        0.0174
     23 C         140.7516  141.1021  167.2609 C.3     1  UNL1        0.0721
     24 N         140.9244  141.9159  166.0127 N.3     1  UNL1       -0.2726
     25 C         142.0694  141.6334  165.0857 C.3     1  UNL1        0.0734
     26 C         139.9523  143.0122  165.6916 C.3     1  UNL1        0.0724
     27 C         138.9767  142.8431  164.5647 C.3     1  UNL1        0.0220
     28 C         137.9144  141.7871  164.6444 C.3     1  UNL1        0.0278
     29 C         138.1766  140.4166  164.0940 C.ar    1  UNL1       -0.0221
     30 C         138.7047  139.3365  164.9909 C.ar    1  UNL1       -0.0043
     31 C         138.9669  137.9660  164.4405 C.ar    1  UNL1       -0.0003
     32 C         138.7011  137.6756  162.9931 C.ar    1  UNL1       -0.0000
     33 C         138.1730  138.7557  162.0961 C.ar    1  UNL1       -0.0003
     34 C         137.9108  140.1262  162.6465 C.ar    1  UNL1       -0.0043
@<TRIPOS>BOND
     1     1     2    2
     2     2     3   am
     3     3    11    1
     4    11    12   ar
     5    12    13   ar
     6    13    14   ar
     7    14    15    1
     8    14    16   ar
     9    16    17    1
    10    16    18   ar
    11     2     4   am
    12     4     5    1
    13     5     6    1
    14     6     7    1
    15     7    19    1
    16    20    19    1
    17    20    21    1
    18    21    22    1
    19    22    23    1
    20    23    24    1
    21    24    26    1
    22    26    27    1
    23    27    28    1
    24    28    29    1
    25    29    30   ar
    26    30    31   ar
    27    31    32   ar
    28    32    33   ar
    29    33    34   ar
    30    24    25    1
    31     7     8    1
    32     8     9    1
    33    18    11   ar
    34     9     4    1
    35    25    20    1
    36    34    29   ar
    37     3    10    1
@<TRIPOS>MOLECULE
*****
 34 37 0 0 0
SMALL
GASTEIGER

@<TRIPOS>ATOM
      1 O         144.2271  137.1638  155.9487 O.2     1  UNL1       -0.2522
      2 C         142.9928  137.1578  156.8010 C.2     1  UNL1        0.3078
      3 N         142.1335  135.9302  156.8679 N.am    1  UNL1       -0.2681
      4 N         142.6178  138.3795  157.5865 N.am    1  UNL1       -0.2611
      5 C         143.4771  139.6071  157.5197 C.3     1  UNL1        0.1123
      6 C         143.1021  140.8287  158.3052 C.3     1  UNL1        0.0940
      7 N         141.8678  140.8227  159.1575 N.3     1  UNL1       -0.2697
      8 C         141.0085  139.5951  159.2243 C.3     1  UNL1        0.0940
      9 C         141.3835  138.3735  158.4388 C.3     1  UNL1        0.1123
     10 H         141.3234  135.9262  157.4273 H       1  UNL1        0.1564
     11 C         142.5085  134.7085  156.0824 C.ar    1  UNL1        0.0525
     12 C         141.7803  134.3804  154.8127 C.ar    1  UNL1        0.0156
     13 C         142.1553  133.1588  154.0273 C.ar    1  UNL1        0.0135
     14 C         143.2585  132.2652  154.5115 C.ar    1  UNL1        0.0683
     15 CL        143.6335  131.0435  153.7260 Cl      1  UNL1       -0.0814
     16 C         143.9868  132.5933  155.7811 C.ar    1  UNL1        0.0694
     17 CL        145.0900  131.6998  156.2653 Cl      1  UNL1       -0.0813
     18 C         143.6118  133.8150  156.5665 C.ar    1  UNL1        0.0270
     19 C         141.4928  142.0444  159.9430 C.3     1  UNL1        0.0735
     20 C         142.2365  142.3851  161.2002 C.3     1  UNL1        0.0320
     21 C         143.3996  143.3310  161.1507 C.3     1  UNL1        0.0042
     22 C         144.1433  143.6717  162.4079 C.3     1  UNL1        0.0174
     23 C         143.7238  143.0667  163.7149 C.3     1  UNL1        0.0721
     24 N         142.5607  142.1208  163.7644 N.3     1  UNL1       -0.2726
     25 C         141.8170  141.7801  162.5071 C.3     1  UNL1        0.0734
     26 C         142.1412  141.5158  165.0713 C.3     1  UNL1        0.0724
     27 C         141.8215  142.4009  166.2394 C.3     1  UNL1        0.0220
     28 C         140.4212  142.8991  166.4418 C.3     1  UNL1        0.0278
     29 C         139.5676  143.2393  165.2563 C.ar    1  UNL1       -0.0221
     30 C         139.8113  144.5094  164.4963 C.ar    1  UNL1       -0.0043
     31 C         138.9575  144.8496  163.3108 C.ar    1  UNL1       -0.0003
     32 C         137.8601  143.9197  162.8853 C.ar    1  UNL1       -0.0000
     33 C         137.6164  142.6497  163.6453 C.ar    1  UNL1       -0.0003
     34 C         138.4701  142.3095  164.8308 C.ar    1  UNL1       -0.0043
@<TRIPOS>BOND
     1     1     2    2
     2     2     3   am
     3     3    11    1
     4    11    12   ar
     5    12    13   ar
     6    13    14   ar
     7    14    15    1
     8    14    16   ar
     9    16    17    1
    10    16    18   ar
    11     2     4   am
    12     4     5    1
    13     5     6    1
    14     6     7    1
    15     7    19    1
    16    20    19    1
    17    20    21    1
    18    21    22    1
    19    22    23    1
    20    23    24    1
    21    24    26    1
    22    26    27    1
    23    27    28    1
    24    28    29    1
    25    29    30   ar
    26    30    31   ar
    27    31    32   ar
    28    32    33   ar
    29    33    34   ar
    30    24    25    1
    31     7     8    1
    32     8     9    1
    33    18    11   ar
    34     9     4    1
    35    25    20    1
    36    34    29   ar
    37     3    10    1
@<TRIPOS>MOLECULE
*****
 34 37 0 0 0
SMALL
GASTEIGER

@<TRIPOS>ATOM
      1 O         144.3923  136.7560  155.7051 O.2     1  UNL1       -0.2522
      2 C         143.0961  136.7917  156.4591 C.2     1  UNL1        0.3078
      3 N         142.2199  135.5750  156.5023 N.am    1  UNL1       -0.2681
      4 N         142.6761  138.0441  157.1699 N.am    1  UNL1       -0.2611
      5 C         143.5523  139.2608  157.1266 C.3     1  UNL1        0.1123
      6 C         143.1323  140.5131  157.8374 C.3     1  UNL1        0.0940
      7 N         141.8361  140.5487  158.5914 N.3     1  UNL1       -0.2697
      8 C         140.9599  139.3321  158.6346 C.3     1  UNL1        0.0940
      9 C         141.3799  138.0797  157.9239 C.3     1  UNL1        0.1123
     10 H         141.3692  135.5984  156.9972 H       1  UNL1        0.1564
     11 C         142.6399  134.3226  155.7916 C.ar    1  UNL1        0.0525
     12 C         142.0369  133.9763  154.4626 C.ar    1  UNL1        0.0156
     13 C         142.4569  132.7239  153.7518 C.ar    1  UNL1        0.0135
     14 C         143.4800  131.8179  154.3702 C.ar    1  UNL1        0.0683
     15 CL        143.9000  130.5655  153.6594 Cl      1  UNL1       -0.0814
     16 C         144.0831  132.1642  155.6992 C.ar    1  UNL1        0.0694
     17 CL        145.1062  131.2581  156.3175 Cl      1  UNL1       -0.0813
     18 C         143.6630  133.4165  156.4099 C.ar    1  UNL1        0.0270
     19 C         141.4160  141.8011  159.3022 C.3     1  UNL1        0.0735
     20 C         141.3562  141.8289  160.8007 C.3     1  UNL1        0.0320
     21 C         142.3156  141.0027  161.6050 C.3     1  UNL1        0.0042
     22 C         142.2558  141.0305  163.1035 C.3     1  UNL1        0.0174
     23 C         141.2366  141.8845  163.7978 C.3     1  UNL1        0.0721
     24 N         140.2773  142.7108  162.9935 N.3     1  UNL1       -0.2726
     25 C         140.3371  142.6829  161.4949 C.3     1  UNL1        0.0734
     26 C         139.2581  143.5648  163.6876 C.3     1  UNL1        0.0724
     27 C         138.0105  142.9429  164.2417 C.3     1  UNL1        0.0220
     28 C         137.4481  141.7024  163.6135 C.3     1  UNL1        0.0278
     29 C         138.0212  140.3603  163.9600 C.ar    1  UNL1       -0.0221
     30 C         138.4468  139.4223  162.8695 C.ar    1  UNL1       -0.0043
     31 C         139.0200  138.0801  163.2161 C.ar    1  UNL1       -0.0003
     32 C         139.1676  137.6759  164.6530 C.ar    1  UNL1       -0.0000
     33 C         138.7421  138.6139  165.7434 C.ar    1  UNL1       -0.0003
     34 C         138.1689  139.9560  165.3970 C.ar    1  UNL1       -0.0043
@<TRIPOS>BOND
     1     1     2    2
     2     2     3   am
     3     3    11    1
     4    11    12   ar
     5    12    13   ar
     6    13    14   ar
     7    14    15    1
     8    14    16   ar
     9    16    17    1
    10    16    18   ar
    11     2     4   am
    12     4     5    1
    13     5     6    1
    14     6     7    1
    15     7    19    1
    16    20    19    1
    17    20    21    1
    18    21    22    1
    19    22    23    1
    20    23    24    1
    21    24    26    1
    22    26    27    1
    23    27    28    1
    24    28    29    1
    25    29    30   ar
    26    30    31   ar
    27    31    32   ar
    28    32    33   ar
    29    33    34   ar
    30    24    25    1
    31     7     8    1
    32     8     9    1
    33    18    11   ar
    34     9     4    1
    35    25    20    1
    36    34    29   ar
    37     3    10    1
@<TRIPOS>MOLECULE
*****
 34 37 0 0 0
SMALL
GASTEIGER

@<TRIPOS>ATOM
      1 O         140.4958  137.9812  157.7496 O.2     1  UNL1       -0.2522
      2 C         141.8512  138.4144  158.2242 C.2     1  UNL1        0.3078
      3 N         143.0792  137.7058  157.7345 N.am    1  UNL1       -0.2681
      4 N         141.9786  139.5563  159.1886 N.am    1  UNL1       -0.2611
      5 C         140.7506  140.2649  159.6783 C.3     1  UNL1        0.1123
      6 C         140.8780  141.4068  160.6426 C.3     1  UNL1        0.0940
      7 N         142.2334  141.8400  161.1172 N.3     1  UNL1       -0.2697
      8 C         143.4614  141.1314  160.6275 C.3     1  UNL1        0.0940
      9 C         143.3340  139.9895  159.6632 C.3     1  UNL1        0.1123
     10 H         143.9688  137.9901  158.0461 H       1  UNL1        0.1564
     11 C         142.9519  136.5639  156.7702 C.ar    1  UNL1        0.0525
     12 C         142.7725  136.8353  155.3059 C.ar    1  UNL1        0.0156
     13 C         142.6451  135.6934  154.3416 C.ar    1  UNL1        0.0135
     14 C         142.6972  134.2801  154.8416 C.ar    1  UNL1        0.0683
     15 CL        142.5698  133.1382  153.8773 Cl      1  UNL1       -0.0814
     16 C         142.8766  134.0088  156.3059 C.ar    1  UNL1        0.0694
     17 CL        142.9286  132.5955  156.8059 Cl      1  UNL1       -0.0813
     18 C         143.0039  135.1506  157.2702 C.ar    1  UNL1        0.0270
     19 C         142.3607  142.9819  162.0816 C.3     1  UNL1        0.0735
     20 C         141.5793  142.9730  163.3619 C.3     1  UNL1        0.0320
     21 C         140.5691  144.0485  163.6315 C.3     1  UNL1        0.0042
     22 C         139.7877  144.0396  164.9118 C.3     1  UNL1        0.0174
     23 C         140.0165  142.9552  165.9226 C.3     1  UNL1        0.0721
     24 N         141.0267  141.8797  165.6530 N.3     1  UNL1       -0.2726
     25 C         141.8082  141.8886  164.3726 C.3     1  UNL1        0.0734
     26 C         141.2556  140.7953  166.6638 C.3     1  UNL1        0.0724
     27 C         140.2122  139.7396  166.8805 C.3     1  UNL1        0.0220
     28 C         138.8545  139.8885  166.2604 C.3     1  UNL1        0.0278
     29 C         138.6313  139.4749  164.8359 C.ar    1  UNL1       -0.0221
     30 C         138.9544  138.0760  164.4017 C.ar    1  UNL1       -0.0043
     31 C         138.7311  137.6624  162.9772 C.ar    1  UNL1       -0.0003
     32 C         138.1847  138.6478  161.9870 C.ar    1  UNL1       -0.0000
     33 C         137.8616  140.0467  162.4212 C.ar    1  UNL1       -0.0003
     34 C         138.0849  140.4603  163.8457 C.ar    1  UNL1       -0.0043
@<TRIPOS>BOND
     1     1     2    2
     2     2     3   am
     3     3    11    1
     4    11    12   ar
     5    12    13   ar
     6    13    14   ar
     7    14    15    1
     8    14    16   ar
     9    16    17    1
    10    16    18   ar
    11     2     4   am
    12     4     5    1
    13     5     6    1
    14     6     7    1
    15     7    19    1
    16    20    19    1
    17    20    21    1
    18    21    22    1
    19    22    23    1
    20    23    24    1
    21    24    26    1
    22    26    27    1
    23    27    28    1
    24    28    29    1
    25    29    30   ar
    26    30    31   ar
    27    31    32   ar
    28    32    33   ar
    29    33    34   ar
    30    24    25    1
    31     7     8    1
    32     8     9    1
    33    18    11   ar
    34     9     4    1
    35    25    20    1
    36    34    29   ar
    37     3    10    1
