@<TRIPOS>MOLECULE
*****
 39 42 0 0 0
SMALL
GASTEIGER

@<TRIPOS>ATOM
      1 C         142.6652  138.6013  157.5191 C.ar    1  UNL1        0.1454
      2 C         141.3160  138.1962  158.0346 C.ar    1  UNL1        0.0388
      3 C         140.8070  138.7601  159.3280 C.ar    1  UNL1        0.0178
      4 C         141.6472  139.7292  160.1059 C.ar    1  UNL1        0.0505
      5 C         142.9962  140.1343  159.5904 C.ar    1  UNL1        0.0178
      6 C         143.5053  139.5703  158.2970 C.ar    1  UNL1        0.0388
      7 N         141.1381  140.2932  161.3993 N.am    1  UNL1       -0.2835
      8 C         141.2907  139.5111  162.6702 C.2     1  UNL1        0.2335
      9 O         141.9524  138.1651  162.6477 O.2     1  UNL1       -0.2743
     10 H         140.7038  141.1766  161.4141 H       1  UNL1        0.1549
     11 C         140.7817  140.0751  163.9635 C.3     1  UNL1        0.1377
     12 C         140.5265  138.6860  164.4687 C.3     1  UNL1        0.0183
     13 C         141.0369  141.4642  163.4582 C.3     1  UNL1        0.0183
     14 C         140.2726  140.6392  165.2569 C.2     1  UNL1        0.2335
     15 O         138.8265  141.0128  165.3946 O.2     1  UNL1       -0.2743
     16 N         141.2098  140.8296  166.4125 N.am    1  UNL1       -0.2835
     17 H         142.1590  140.5843  166.3221 H       1  UNL1        0.1549
     18 C         140.7008  141.3936  167.7058 C.ar    1  UNL1        0.0505
     19 C         140.9170  142.8423  168.0289 C.ar    1  UNL1        0.0170
     20 C         140.4080  143.4064  169.3223 C.ar    1  UNL1        0.0309
     21 C         139.6829  142.5217  170.2926 C.ar    1  UNL1        0.1402
     22 F         139.1739  143.0857  171.5859 F       1  UNL1       -0.2042
     23 C         139.4667  141.0729  169.9695 C.ar    1  UNL1        0.0309
     24 C         139.9757  140.5089  168.6761 C.ar    1  UNL1        0.0170
     25 O         143.1741  138.0373  156.2257 O.3     1  UNL1       -0.4534
     26 C         142.5988  132.6643  156.4492 C.ar    1  UNL1        0.1739
     27 C         141.6862  133.1353  155.3560 C.ar    1  UNL1        0.0592
     28 C         141.6019  134.5963  155.0267 C.ar    1  UNL1        0.0875
     29 N         140.6893  135.0673  153.9334 N.ar    1  UNL1       -0.2435
     30 C         140.6050  136.5283  153.6042 C.ar    1  UNL1        0.1020
     31 C         141.4333  137.5183  154.3683 C.ar    1  UNL1        0.0581
     32 C         142.3459  137.0473  155.4616 C.ar    1  UNL1        0.1483
     33 C         142.4302  135.5863  155.7908 C.ar    1  UNL1        0.0554
     34 C         143.3428  135.1153  156.8841 C.ar    1  UNL1        0.0446
     35 C         143.4271  133.6543  157.2133 C.ar    1  UNL1        0.1726
     36 C         143.3446  130.2559  155.8219 C.3     1  UNL1        0.2526
     37 O         142.6832  131.2033  156.7785 O.3     1  UNL1       -0.4683
     38 O         144.3397  133.1833  158.3067 O.3     1  UNL1       -0.4684
     39 C         145.5465  132.3575  157.9725 C.3     1  UNL1        0.2526
@<TRIPOS>BOND
     1    36    37    1
     2    37    26    1
     3    26    27   ar
     4    27    28   ar
     5    28    29   ar
     6    29    30   ar
     7    30    31   ar
     8    31    32   ar
     9    32    25    1
    10    25     1    1
    11     1     2   ar
    12     2     3   ar
    13     3     4   ar
    14     4     7    1
    15     7     8   am
    16     8     9    2
    17     8    11    1
    18    11    12    1
    19    11    13    1
    20    11    14    1
    21    14    15    2
    22    14    16   am
    23    16    18    1
    24    18    19   ar
    25    19    20   ar
    26    20    21   ar
    27    21    22    1
    28    21    23   ar
    29    23    24   ar
    30     4     5   ar
    31     5     6   ar
    32    32    33   ar
    33    33    34   ar
    34    34    35   ar
    35    35    38    1
    36    38    39    1
    37    35    26   ar
    38    33    28   ar
    39     6     1   ar
    40    24    18   ar
    41     7    10    1
    42    16    17    1
@<TRIPOS>MOLECULE
*****
 39 42 0 0 0
SMALL
GASTEIGER

@<TRIPOS>ATOM
      1 C         139.3367  144.5312  156.9377 C.ar    1  UNL1        0.1454
      2 C         140.1832  145.5016  157.7071 C.ar    1  UNL1        0.0388
      3 C         140.6666  145.1487  159.0825 C.ar    1  UNL1        0.0178
      4 C         140.3036  143.8255  159.6885 C.ar    1  UNL1        0.0505
      5 C         139.4571  142.8551  158.9192 C.ar    1  UNL1        0.0178
      6 C         138.9737  143.2080  157.5437 C.ar    1  UNL1        0.0388
      7 N         140.7870  143.4727  161.0640 N.am    1  UNL1       -0.2835
      8 C         139.8556  143.5741  162.2353 C.2     1  UNL1        0.2335
      9 O         138.4406  144.0283  162.0313 O.2     1  UNL1       -0.2743
     10 H         141.7157  143.1745  161.1980 H       1  UNL1        0.1549
     11 C         140.3390  143.2213  163.6107 C.3     1  UNL1        0.1377
     12 C         139.6652  141.8854  163.5049 C.3     1  UNL1        0.0183
     13 C         141.0129  144.5572  163.7166 C.3     1  UNL1        0.0183
     14 C         140.8226  142.8685  164.9862 C.2     1  UNL1        0.2335
     15 O         142.2672  143.0551  165.3442 O.2     1  UNL1       -0.2743
     16 N         139.8614  142.3290  166.0036 N.am    1  UNL1       -0.2835
     17 H         138.9132  142.2065  165.7686 H       1  UNL1        0.1549
     18 C         140.3448  141.9762  167.3790 C.ar    1  UNL1        0.0505
     19 C         140.5433  143.0537  168.4035 C.ar    1  UNL1        0.0170
     20 C         141.0268  142.7009  169.7790 C.ar    1  UNL1        0.0309
     21 C         141.3117  141.2706  170.1299 C.ar    1  UNL1        0.1402
     22 F         141.7952  140.9178  171.5053 F       1  UNL1       -0.2042
     23 C         141.1132  140.1931  169.1053 C.ar    1  UNL1        0.0309
     24 C         140.6298  140.5459  167.7299 C.ar    1  UNL1        0.0170
     25 O         138.8533  144.8841  155.5623 O.3     1  UNL1       -0.4534
     26 C         139.7812  150.0825  154.3940 C.ar    1  UNL1        0.1739
     27 C         140.6909  149.2876  153.5050 C.ar    1  UNL1        0.0592
     28 C         140.6864  147.7891  153.5748 C.ar    1  UNL1        0.0875
     29 N         141.5962  146.9942  152.6858 N.ar    1  UNL1       -0.2435
     30 C         141.5916  145.4959  152.7556 C.ar    1  UNL1        0.1020
     31 C         140.6773  144.7925  153.7144 C.ar    1  UNL1        0.0581
     32 C         139.7676  145.5874  154.6034 C.ar    1  UNL1        0.1483
     33 C         139.7721  147.0858  154.5336 C.ar    1  UNL1        0.0554
     34 C         138.8624  147.8808  155.4226 C.ar    1  UNL1        0.0446
     35 C         138.8669  149.3791  155.3528 C.ar    1  UNL1        0.1726
     36 C         138.7382  152.2976  153.5247 C.3     1  UNL1        0.2526
     37 O         139.7857  151.5809  154.3242 O.3     1  UNL1       -0.4683
     38 O         137.9571  150.1742  156.2418 O.3     1  UNL1       -0.4684
     39 C         138.0490  150.0281  157.7319 C.3     1  UNL1        0.2526
@<TRIPOS>BOND
     1    36    37    1
     2    37    26    1
     3    26    27   ar
     4    27    28   ar
     5    28    29   ar
     6    29    30   ar
     7    30    31   ar
     8    31    32   ar
     9    32    25    1
    10    25     1    1
    11     1     2   ar
    12     2     3   ar
    13     3     4   ar
    14     4     7    1
    15     7     8   am
    16     8     9    2
    17     8    11    1
    18    11    12    1
    19    11    13    1
    20    11    14    1
    21    14    15    2
    22    14    16   am
    23    16    18    1
    24    18    19   ar
    25    19    20   ar
    26    20    21   ar
    27    21    22    1
    28    21    23   ar
    29    23    24   ar
    30     4     5   ar
    31     5     6   ar
    32    32    33   ar
    33    33    34   ar
    34    34    35   ar
    35    35    38    1
    36    38    39    1
    37    35    26   ar
    38    33    28   ar
    39     6     1   ar
    40    24    18   ar
    41     7    10    1
    42    16    17    1
@<TRIPOS>MOLECULE
*****
 39 42 0 0 0
SMALL
GASTEIGER

@<TRIPOS>ATOM
      1 C         139.4941  139.0315  163.3915 C.ar    1  UNL1        0.1454
      2 C         138.4764  140.1256  163.2595 C.ar    1  UNL1        0.0388
      3 C         138.5876  141.1227  162.1445 C.ar    1  UNL1        0.0178
      4 C         139.7164  141.0258  161.1614 C.ar    1  UNL1        0.0505
      5 C         140.7340  139.9317  161.2933 C.ar    1  UNL1        0.0178
      6 C         140.6228  138.9345  162.4084 C.ar    1  UNL1        0.0388
      7 N         139.8275  142.0229  160.0463 N.am    1  UNL1       -0.2835
      8 C         140.6777  143.2469  160.2166 C.2     1  UNL1        0.2335
      9 O         141.4168  143.4737  161.5020 O.2     1  UNL1       -0.2743
     10 H         139.3424  141.8741  159.2026 H       1  UNL1        0.1549
     11 C         140.7888  144.2440  159.1016 C.3     1  UNL1        0.1377
     12 C         140.5072  143.1598  158.1040 C.3     1  UNL1        0.0183
     13 C         141.0704  145.3282  160.0991 C.3     1  UNL1        0.0183
     14 C         140.8999  145.2412  157.9865 C.2     1  UNL1        0.2335
     15 O         142.1081  146.1246  157.8880 O.2     1  UNL1       -0.2743
     16 N         139.8028  145.3549  156.9699 N.am    1  UNL1       -0.2835
     17 H         139.0098  144.7750  157.0346 H       1  UNL1        0.1549
     18 C         139.9139  146.3520  155.8549 C.ar    1  UNL1        0.0505
     19 C         140.7484  146.0383  154.6486 C.ar    1  UNL1        0.0170
     20 C         140.8595  147.0354  153.5335 C.ar    1  UNL1        0.0309
     21 C         140.1360  148.3462  153.6247 C.ar    1  UNL1        0.1402
     22 F         140.2471  149.3434  152.5097 F       1  UNL1       -0.2042
     23 C         139.3015  148.6599  154.8311 C.ar    1  UNL1        0.0309
     24 C         139.1904  147.6628  155.9461 C.ar    1  UNL1        0.0170
     25 O         139.3829  138.0344  164.5066 O.3     1  UNL1       -0.4534
     26 C         141.5345  141.4987  168.0588 C.ar    1  UNL1        0.1739
     27 C         140.2998  140.9490  168.7094 C.ar    1  UNL1        0.0592
     28 C         139.4532  139.9455  167.9840 C.ar    1  UNL1        0.0875
     29 N         138.2185  139.3958  168.6346 N.ar    1  UNL1       -0.2435
     30 C         137.3719  138.3923  167.9092 C.ar    1  UNL1        0.1020
     31 C         137.7601  137.9385  166.5332 C.ar    1  UNL1        0.0581
     32 C         138.9948  138.4882  165.8826 C.ar    1  UNL1        0.1483
     33 C         139.8413  139.4917  166.6080 C.ar    1  UNL1        0.0554
     34 C         141.0761  140.0414  165.9574 C.ar    1  UNL1        0.0446
     35 C         141.9226  141.0449  166.6828 C.ar    1  UNL1        0.1726
     36 C         143.5572  142.0449  169.5952 C.3     1  UNL1        0.2526
     37 O         142.3811  142.5023  168.7843 O.3     1  UNL1       -0.4683
     38 O         143.1574  141.5947  166.0322 O.3     1  UNL1       -0.4684
     39 C         143.1225  142.0165  164.5932 C.3     1  UNL1        0.2526
@<TRIPOS>BOND
     1    36    37    1
     2    37    26    1
     3    26    27   ar
     4    27    28   ar
     5    28    29   ar
     6    29    30   ar
     7    30    31   ar
     8    31    32   ar
     9    32    25    1
    10    25     1    1
    11     1     2   ar
    12     2     3   ar
    13     3     4   ar
    14     4     7    1
    15     7     8   am
    16     8     9    2
    17     8    11    1
    18    11    12    1
    19    11    13    1
    20    11    14    1
    21    14    15    2
    22    14    16   am
    23    16    18    1
    24    18    19   ar
    25    19    20   ar
    26    20    21   ar
    27    21    22    1
    28    21    23   ar
    29    23    24   ar
    30     4     5   ar
    31     5     6   ar
    32    32    33   ar
    33    33    34   ar
    34    34    35   ar
    35    35    38    1
    36    38    39    1
    37    35    26   ar
    38    33    28   ar
    39     6     1   ar
    40    24    18   ar
    41     7    10    1
    42    16    17    1
@<TRIPOS>MOLECULE
*****
 39 42 0 0 0
SMALL
GASTEIGER

@<TRIPOS>ATOM
      1 C         138.8659  142.0040  159.6903 C.ar    1  UNL1        0.1454
      2 C         139.1415  142.0996  158.2189 C.ar    1  UNL1        0.0388
      3 C         139.3652  140.8531  157.4152 C.ar    1  UNL1        0.0178
      4 C         139.3134  139.5108  158.0828 C.ar    1  UNL1        0.0505
      5 C         139.0379  139.4152  159.5542 C.ar    1  UNL1        0.0178
      6 C         138.8142  140.6617  160.3580 C.ar    1  UNL1        0.0388
      7 N         139.5372  138.2642  157.2790 N.am    1  UNL1       -0.2835
      8 C         140.9324  137.8339  156.9351 C.2     1  UNL1        0.2335
      9 O         142.1038  138.6502  157.3950 O.2     1  UNL1       -0.2743
     10 H         138.7684  137.7285  156.9772 H       1  UNL1        0.1549
     11 C         141.1561  136.5874  156.1314 C.3     1  UNL1        0.1377
     12 C         139.7971  136.7408  155.5153 C.3     1  UNL1        0.0183
     13 C         142.5151  136.4341  156.7474 C.3     1  UNL1        0.0183
     14 C         141.3798  135.3408  155.3276 C.2     1  UNL1        0.2335
     15 O         141.3449  135.3982  153.8291 O.2     1  UNL1       -0.2743
     16 N         141.6385  134.0368  156.0223 N.am    1  UNL1       -0.2835
     17 H         141.6614  133.9991  157.0059 H       1  UNL1        0.1549
     18 C         141.8622  132.7903  155.2187 C.ar    1  UNL1        0.0505
     19 C         143.2535  132.3918  154.8243 C.ar    1  UNL1        0.0170
     20 C         143.4773  131.1452  154.0206 C.ar    1  UNL1        0.0309
     21 C         142.3098  130.2971  153.6112 C.ar    1  UNL1        0.1402
     22 F         142.5336  129.0505  152.8075 F       1  UNL1       -0.2042
     23 C         140.9185  130.6956  154.0056 C.ar    1  UNL1        0.0309
     24 C         140.6947  131.9422  154.8093 C.ar    1  UNL1        0.0170
     25 O         138.6422  143.2505  160.4941 O.3     1  UNL1       -0.4534
     26 C         143.0041  143.4908  163.6824 C.ar    1  UNL1        0.1739
     27 C         141.8229  143.3856  164.6008 C.ar    1  UNL1        0.0592
     28 C         140.4370  143.2993  164.0333 C.ar    1  UNL1        0.0875
     29 N         139.2557  143.1941  164.9517 N.ar    1  UNL1       -0.2435
     30 C         137.8699  143.1077  164.3842 C.ar    1  UNL1        0.1020
     31 C         137.6654  143.1265  162.8983 C.ar    1  UNL1        0.0581
     32 C         138.8467  143.2317  161.9799 C.ar    1  UNL1        0.1483
     33 C         140.2325  143.3181  162.5474 C.ar    1  UNL1        0.0554
     34 C         141.4139  143.4233  161.6290 C.ar    1  UNL1        0.0446
     35 C         142.7996  143.5096  162.1965 C.ar    1  UNL1        0.1726
     36 C         145.2699  142.3625  164.2684 C.3     1  UNL1        0.2526
     37 O         144.3900  143.5772  164.2499 O.3     1  UNL1       -0.4683
     38 O         143.9810  143.6148  161.2782 O.3     1  UNL1       -0.4684
     39 C         144.4764  142.3998  160.5513 C.3     1  UNL1        0.2526
@<TRIPOS>BOND
     1    36    37    1
     2    37    26    1
     3    26    27   ar
     4    27    28   ar
     5    28    29   ar
     6    29    30   ar
     7    30    31   ar
     8    31    32   ar
     9    32    25    1
    10    25     1    1
    11     1     2   ar
    12     2     3   ar
    13     3     4   ar
    14     4     7    1
    15     7     8   am
    16     8     9    2
    17     8    11    1
    18    11    12    1
    19    11    13    1
    20    11    14    1
    21    14    15    2
    22    14    16   am
    23    16    18    1
    24    18    19   ar
    25    19    20   ar
    26    20    21   ar
    27    21    22    1
    28    21    23   ar
    29    23    24   ar
    30     4     5   ar
    31     5     6   ar
    32    32    33   ar
    33    33    34   ar
    34    34    35   ar
    35    35    38    1
    36    38    39    1
    37    35    26   ar
    38    33    28   ar
    39     6     1   ar
    40    24    18   ar
    41     7    10    1
    42    16    17    1
@<TRIPOS>MOLECULE
*****
 39 42 0 0 0
SMALL
GASTEIGER

@<TRIPOS>ATOM
      1 C         138.4627  142.4597  164.4218 C.ar    1  UNL1        0.1454
      2 C         138.2699  141.0077  164.7451 C.ar    1  UNL1        0.0388
      3 C         138.9915  140.3963  165.9094 C.ar    1  UNL1        0.0178
      4 C         139.9059  141.2369  166.7503 C.ar    1  UNL1        0.0505
      5 C         140.0988  142.6889  166.4270 C.ar    1  UNL1        0.0178
      6 C         139.3772  143.3003  165.2627 C.ar    1  UNL1        0.0388
      7 N         140.6275  140.6255  167.9146 N.am    1  UNL1       -0.2835
      8 C         141.8742  139.8231  167.6868 C.2     1  UNL1        0.2335
      9 O         142.3994  139.6322  166.2948 O.2     1  UNL1       -0.2743
     10 H         140.2829  140.7508  168.8282 H       1  UNL1        0.1549
     11 C         142.5958  139.2117  168.8511 C.3     1  UNL1        0.1377
     12 C         141.8050  140.0711  169.7924 C.3     1  UNL1        0.0183
     13 C         143.3865  138.3524  167.9097 C.3     1  UNL1        0.0183
     14 C         143.3174  138.6003  170.0154 C.2     1  UNL1        0.2335
     15 O         143.4914  139.3814  171.2840 O.2     1  UNL1       -0.2743
     16 N         143.8649  137.2077  169.9109 N.am    1  UNL1       -0.2835
     17 H         143.7507  136.6950  169.0782 H       1  UNL1        0.1549
     18 C         144.5865  136.5962  171.0751 C.ar    1  UNL1        0.0505
     19 C         145.4942  137.4388  171.9213 C.ar    1  UNL1        0.0170
     20 C         146.2158  136.8273  173.0856 C.ar    1  UNL1        0.0309
     21 C         146.0297  135.3733  173.4036 C.ar    1  UNL1        0.1402
     22 F         146.7512  134.7618  174.5678 F       1  UNL1       -0.2042
     23 C         145.1219  134.5307  172.5574 C.ar    1  UNL1        0.0309
     24 C         144.4003  135.1422  171.3932 C.ar    1  UNL1        0.0170
     25 O         137.7411  143.0711  163.2575 O.3     1  UNL1       -0.4534
     26 C         139.6067  141.7955  158.3441 C.ar    1  UNL1        0.1739
     27 C         140.0081  143.2207  158.5844 C.ar    1  UNL1        0.0592
     28 C         139.6421  143.8959  159.8729 C.ar    1  UNL1        0.0875
     29 N         140.0435  145.3210  160.1132 N.ar    1  UNL1       -0.2435
     30 C         139.6774  145.9962  161.4016 C.ar    1  UNL1        0.1020
     31 C         138.9100  145.2462  162.4497 C.ar    1  UNL1        0.0581
     32 C         138.5086  143.8211  162.2094 C.ar    1  UNL1        0.1483
     33 C         138.8746  143.1459  160.9210 C.ar    1  UNL1        0.0554
     34 C         138.4732  141.7207  160.6806 C.ar    1  UNL1        0.0446
     35 C         138.8393  141.0455  159.3922 C.ar    1  UNL1        0.1726
     36 C         139.5394  141.7142  155.7481 C.3     1  UNL1        0.2526
     37 O         139.9728  141.1203  157.0556 O.3     1  UNL1       -0.4683
     38 O         138.4379  139.6203  159.1518 O.3     1  UNL1       -0.4684
     39 C         139.4431  138.5196  159.3192 C.3     1  UNL1        0.2526
@<TRIPOS>BOND
     1    36    37    1
     2    37    26    1
     3    26    27   ar
     4    27    28   ar
     5    28    29   ar
     6    29    30   ar
     7    30    31   ar
     8    31    32   ar
     9    32    25    1
    10    25     1    1
    11     1     2   ar
    12     2     3   ar
    13     3     4   ar
    14     4     7    1
    15     7     8   am
    16     8     9    2
    17     8    11    1
    18    11    12    1
    19    11    13    1
    20    11    14    1
    21    14    15    2
    22    14    16   am
    23    16    18    1
    24    18    19   ar
    25    19    20   ar
    26    20    21   ar
    27    21    22    1
    28    21    23   ar
    29    23    24   ar
    30     4     5   ar
    31     5     6   ar
    32    32    33   ar
    33    33    34   ar
    34    34    35   ar
    35    35    38    1
    36    38    39    1
    37    35    26   ar
    38    33    28   ar
    39     6     1   ar
    40    24    18   ar
    41     7    10    1
    42    16    17    1
@<TRIPOS>MOLECULE
*****
 39 42 0 0 0
SMALL
GASTEIGER

@<TRIPOS>ATOM
      1 C         143.0932  141.4340  158.3500 C.ar    1  UNL1        0.1454
      2 C         143.4884  140.3805  159.3420 C.ar    1  UNL1        0.0388
      3 C         143.1797  138.9385  159.0677 C.ar    1  UNL1        0.0178
      4 C         142.4759  138.5499  157.8014 C.ar    1  UNL1        0.0505
      5 C         142.0807  139.6033  156.8094 C.ar    1  UNL1        0.0178
      6 C         142.3894  141.0454  157.0836 C.ar    1  UNL1        0.0388
      7 N         142.1672  137.1078  157.5271 N.am    1  UNL1       -0.2835
      8 C         143.0423  136.3165  156.6010 C.2     1  UNL1        0.2335
      9 O         144.2262  136.9671  155.9490 O.2     1  UNL1       -0.2743
     10 H         141.3902  136.6807  157.9550 H       1  UNL1        0.1549
     11 C         142.7336  134.8744  156.3267 C.3     1  UNL1        0.1377
     12 C         141.9761  135.2710  155.0943 C.3     1  UNL1        0.0183
     13 C         143.4911  134.4779  157.5592 C.3     1  UNL1        0.0183
     14 C         142.4249  133.4323  156.0526 C.2     1  UNL1        0.2335
     15 O         142.6438  132.4022  157.1207 O.2     1  UNL1       -0.2743
     16 N         141.8973  133.0204  154.7102 N.am    1  UNL1       -0.2835
     17 H         141.7536  133.6965  154.0091 H       1  UNL1        0.1549
     18 C         141.5886  131.5784  154.4360 C.ar    1  UNL1        0.0505
     19 C         142.6323  130.6910  153.8251 C.ar    1  UNL1        0.0170
     20 C         142.3236  129.2489  153.5508 C.ar    1  UNL1        0.0309
     21 C         140.9712  128.6943  153.8875 C.ar    1  UNL1        0.1402
     22 F         140.6625  127.2522  153.6133 F       1  UNL1       -0.2042
     23 C         139.9275  129.5817  154.4985 C.ar    1  UNL1        0.0309
     24 C         140.2362  131.0237  154.7727 C.ar    1  UNL1        0.0170
     25 O         143.4019  142.8760  158.6242 O.3     1  UNL1       -0.4534
     26 C         140.8419  144.4897  163.1067 C.ar    1  UNL1        0.1739
     27 C         140.2097  145.2415  161.9730 C.ar    1  UNL1        0.0592
     28 C         140.6917  145.0260  160.5690 C.ar    1  UNL1        0.0875
     29 N         140.0595  145.7777  159.4353 N.ar    1  UNL1       -0.2435
     30 C         140.5414  145.5622  158.0313 C.ar    1  UNL1        0.1020
     31 C         141.6556  144.5950  157.7610 C.ar    1  UNL1        0.0581
     32 C         142.2878  143.8432  158.8946 C.ar    1  UNL1        0.1483
     33 C         141.8058  144.0587  160.2986 C.ar    1  UNL1        0.0554
     34 C         142.4380  143.3070  161.4323 C.ar    1  UNL1        0.0446
     35 C         141.9561  143.5225  162.8363 C.ar    1  UNL1        0.1726
     36 C         138.8915  144.6652  164.8141 C.3     1  UNL1        0.2526
     37 O         140.3600  144.7052  164.5107 O.3     1  UNL1       -0.4683
     38 O         142.5883  142.7707  163.9700 O.3     1  UNL1       -0.4684
     39 C         141.8660  141.6167  164.5999 C.3     1  UNL1        0.2526
@<TRIPOS>BOND
     1    36    37    1
     2    37    26    1
     3    26    27   ar
     4    27    28   ar
     5    28    29   ar
     6    29    30   ar
     7    30    31   ar
     8    31    32   ar
     9    32    25    1
    10    25     1    1
    11     1     2   ar
    12     2     3   ar
    13     3     4   ar
    14     4     7    1
    15     7     8   am
    16     8     9    2
    17     8    11    1
    18    11    12    1
    19    11    13    1
    20    11    14    1
    21    14    15    2
    22    14    16   am
    23    16    18    1
    24    18    19   ar
    25    19    20   ar
    26    20    21   ar
    27    21    22    1
    28    21    23   ar
    29    23    24   ar
    30     4     5   ar
    31     5     6   ar
    32    32    33   ar
    33    33    34   ar
    34    34    35   ar
    35    35    38    1
    36    38    39    1
    37    35    26   ar
    38    33    28   ar
    39     6     1   ar
    40    24    18   ar
    41     7    10    1
    42    16    17    1
@<TRIPOS>MOLECULE
*****
 39 42 0 0 0
SMALL
GASTEIGER

@<TRIPOS>ATOM
      1 C         138.2876  140.1058  157.3647 C.ar    1  UNL1        0.1454
      2 C         139.2625  139.2694  158.1394 C.ar    1  UNL1        0.0388
      3 C         139.8691  139.8021  159.4036 C.ar    1  UNL1        0.0178
      4 C         139.5007  141.1713  159.8932 C.ar    1  UNL1        0.0505
      5 C         138.5258  142.0077  159.1187 C.ar    1  UNL1        0.0178
      6 C         137.9193  141.4750  157.8544 C.ar    1  UNL1        0.0388
      7 N         140.1073  141.7040  161.1575 N.am    1  UNL1       -0.2835
      8 C         139.5749  141.2629  162.4887 C.2     1  UNL1        0.2335
      9 O         138.4360  140.2890  162.5556 O.2     1  UNL1       -0.2743
     10 H         140.8548  142.3431  161.1136 H       1  UNL1        0.1549
     11 C         140.1815  141.7956  163.7529 C.3     1  UNL1        0.1377
     12 C         138.8361  142.2967  164.1872 C.3     1  UNL1        0.0183
     13 C         141.5269  141.2944  163.3185 C.3     1  UNL1        0.0183
     14 C         140.7881  142.3283  165.0171 C.2     1  UNL1        0.2335
     15 O         141.4390  143.6797  165.0252 O.2     1  UNL1       -0.2743
     16 N         140.7439  141.5096  166.2732 N.am    1  UNL1       -0.2835
     17 H         140.3167  140.6226  166.2678 H       1  UNL1        0.1549
     18 C         141.3505  142.0422  167.5374 C.ar    1  UNL1        0.0505
     19 C         142.8090  141.8305  167.8166 C.ar    1  UNL1        0.0170
     20 C         143.4157  142.3632  169.0808 C.ar    1  UNL1        0.0309
     21 C         142.5638  143.1075  170.0659 C.ar    1  UNL1        0.1402
     22 F         143.1704  143.6402  171.3301 F       1  UNL1       -0.2042
     23 C         141.1052  143.3192  169.7866 C.ar    1  UNL1        0.0309
     24 C         140.4986  142.7865  168.5224 C.ar    1  UNL1        0.0170
     25 O         137.6811  139.5731  156.1005 O.3     1  UNL1       -0.4534
     26 C         132.5019  141.0392  155.5750 C.ar    1  UNL1        0.1739
     27 C         133.2546  141.7826  154.5116 C.ar    1  UNL1        0.0592
     28 C         134.7376  141.6019  154.3771 C.ar    1  UNL1        0.0875
     29 N         135.4904  142.3453  153.3138 N.ar    1  UNL1       -0.2435
     30 C         136.9733  142.1646  153.1793 C.ar    1  UNL1        0.1020
     31 C         137.7036  141.2405  154.1082 C.ar    1  UNL1        0.0581
     32 C         136.9509  140.4972  155.1716 C.ar    1  UNL1        0.1483
     33 C         135.4679  140.6779  155.3060 C.ar    1  UNL1        0.0554
     34 C         134.7151  139.9345  156.3695 C.ar    1  UNL1        0.0446
     35 C         133.2321  140.1152  156.5039 C.ar    1  UNL1        0.1726
     36 C         130.3348  142.3548  155.0066 C.3     1  UNL1        0.2526
     37 O         131.0188  141.2199  155.7095 O.3     1  UNL1       -0.4683
     38 O         132.4793  139.3718  157.5673 O.3     1  UNL1       -0.4684
     39 C         133.2136  138.4697  158.5144 C.3     1  UNL1        0.2526
@<TRIPOS>BOND
     1    36    37    1
     2    37    26    1
     3    26    27   ar
     4    27    28   ar
     5    28    29   ar
     6    29    30   ar
     7    30    31   ar
     8    31    32   ar
     9    32    25    1
    10    25     1    1
    11     1     2   ar
    12     2     3   ar
    13     3     4   ar
    14     4     7    1
    15     7     8   am
    16     8     9    2
    17     8    11    1
    18    11    12    1
    19    11    13    1
    20    11    14    1
    21    14    15    2
    22    14    16   am
    23    16    18    1
    24    18    19   ar
    25    19    20   ar
    26    20    21   ar
    27    21    22    1
    28    21    23   ar
    29    23    24   ar
    30     4     5   ar
    31     5     6   ar
    32    32    33   ar
    33    33    34   ar
    34    34    35   ar
    35    35    38    1
    36    38    39    1
    37    35    26   ar
    38    33    28   ar
    39     6     1   ar
    40    24    18   ar
    41     7    10    1
    42    16    17    1
@<TRIPOS>MOLECULE
*****
 39 42 0 0 0
SMALL
GASTEIGER

@<TRIPOS>ATOM
      1 C         142.2481  141.1817  161.4125 C.ar    1  UNL1        0.1454
      2 C         141.0489  140.3501  161.0651 C.ar    1  UNL1        0.0388
      3 C         141.2204  139.0657  160.3095 C.ar    1  UNL1        0.0178
      4 C         142.5909  138.6128  159.9014 C.ar    1  UNL1        0.0505
      5 C         143.7900  139.4443  160.2488 C.ar    1  UNL1        0.0178
      6 C         143.6186  140.7288  161.0044 C.ar    1  UNL1        0.0388
      7 N         142.7622  137.3283  159.1459 N.am    1  UNL1       -0.2835
      8 C         142.6619  137.3194  157.6493 C.2     1  UNL1        0.2335
      9 O         142.3902  138.5949  156.9082 O.2     1  UNL1       -0.2743
     10 H         142.9406  136.4911  159.6323 H       1  UNL1        0.1549
     11 C         142.8333  136.0349  156.8938 C.3     1  UNL1        0.1377
     12 C         143.3137  135.3627  158.1457 C.3     1  UNL1        0.0183
     13 C         142.3529  136.7072  155.6419 C.3     1  UNL1        0.0183
     14 C         143.0046  134.7504  156.1382 C.2     1  UNL1        0.2335
     15 O         143.1899  134.7747  154.6500 O.2     1  UNL1       -0.2743
     16 N         142.9908  133.4417  156.8711 N.am    1  UNL1       -0.2835
     17 H         142.8692  133.4258  157.8479 H       1  UNL1        0.1549
     18 C         143.1621  132.1573  156.1156 C.ar    1  UNL1        0.0505
     19 C         141.9616  131.4411  155.5718 C.ar    1  UNL1        0.0170
     20 C         142.1329  130.1566  154.8163 C.ar    1  UNL1        0.0309
     21 C         143.5048  129.5883  154.6046 C.ar    1  UNL1        0.1402
     22 F         143.6761  128.3039  153.8491 F       1  UNL1       -0.2042
     23 C         144.7054  130.3045  155.1484 C.ar    1  UNL1        0.0309
     24 C         144.5341  131.5889  155.9039 C.ar    1  UNL1        0.0170
     25 O         142.0767  142.4661  162.1680 O.3     1  UNL1       -0.4534
     26 C         140.3801  141.1565  167.1336 C.ar    1  UNL1        0.1739
     27 C         141.7289  141.7891  167.3082 C.ar    1  UNL1        0.0592
     28 C         142.4903  142.2747  166.1104 C.ar    1  UNL1        0.0875
     29 N         143.8391  142.9073  166.2850 N.ar    1  UNL1       -0.2435
     30 C         144.6004  143.3928  165.0873 C.ar    1  UNL1        0.1020
     31 C         144.0129  143.2457  163.7150 C.ar    1  UNL1        0.0581
     32 C         142.6641  142.6131  163.5404 C.ar    1  UNL1        0.1483
     33 C         141.9028  142.1276  164.7381 C.ar    1  UNL1        0.0554
     34 C         140.5539  141.4950  164.5635 C.ar    1  UNL1        0.0446
     35 C         139.7926  141.0094  165.7612 C.ar    1  UNL1        0.1726
     36 C         140.3568  140.1451  169.5266 C.3     1  UNL1        0.2526
     37 O         139.6187  140.6709  168.3313 O.3     1  UNL1       -0.4683
     38 O         138.4437  140.3768  165.5867 O.3     1  UNL1       -0.4684
     39 C         138.3089  138.8829  165.5981 C.3     1  UNL1        0.2526
@<TRIPOS>BOND
     1    36    37    1
     2    37    26    1
     3    26    27   ar
     4    27    28   ar
     5    28    29   ar
     6    29    30   ar
     7    30    31   ar
     8    31    32   ar
     9    32    25    1
    10    25     1    1
    11     1     2   ar
    12     2     3   ar
    13     3     4   ar
    14     4     7    1
    15     7     8   am
    16     8     9    2
    17     8    11    1
    18    11    12    1
    19    11    13    1
    20    11    14    1
    21    14    15    2
    22    14    16   am
    23    16    18    1
    24    18    19   ar
    25    19    20   ar
    26    20    21   ar
    27    21    22    1
    28    21    23   ar
    29    23    24   ar
    30     4     5   ar
    31     5     6   ar
    32    32    33   ar
    33    33    34   ar
    34    34    35   ar
    35    35    38    1
    36    38    39    1
    37    35    26   ar
    38    33    28   ar
    39     6     1   ar
    40    24    18   ar
    41     7    10    1
    42    16    17    1
@<TRIPOS>MOLECULE
*****
 39 42 0 0 0
SMALL
GASTEIGER

@<TRIPOS>ATOM
      1 C         142.5164  143.1398  159.6384 C.ar    1  UNL1        0.1454
      2 C         141.2755  142.2975  159.6093 C.ar    1  UNL1        0.0388
      3 C         141.2199  141.0737  158.7438 C.ar    1  UNL1        0.0178
      4 C         142.4051  140.6921  157.9074 C.ar    1  UNL1        0.0505
      5 C         143.6460  141.5342  157.9365 C.ar    1  UNL1        0.0178
      6 C         143.7017  142.7582  158.8020 C.ar    1  UNL1        0.0388
      7 N         142.3495  139.4681  157.0419 N.am    1  UNL1       -0.2835
      8 C         142.8008  138.1446  157.5846 C.2     1  UNL1        0.2335
      9 O         143.3077  138.0449  158.9928 O.2     1  UNL1       -0.2743
     10 H         142.0167  139.5336  156.1176 H       1  UNL1        0.1549
     11 C         142.7451  136.9208  156.7191 C.3     1  UNL1        0.1377
     12 C         142.9227  136.0554  157.9313 C.3     1  UNL1        0.0183
     13 C         142.5674  137.7862  155.5069 C.3     1  UNL1        0.0183
     14 C         142.6894  135.6970  155.8535 C.2     1  UNL1        0.2335
     15 O         142.8341  135.8233  154.3659 O.2     1  UNL1       -0.2743
     16 N         142.4889  134.3469  156.4756 N.am    1  UNL1       -0.2835
     17 H         142.3939  134.2640  157.4520 H       1  UNL1        0.1549
     18 C         142.4332  133.1230  155.6101 C.ar    1  UNL1        0.0505
     19 C         141.1199  132.6547  155.0571 C.ar    1  UNL1        0.0170
     20 C         141.0642  131.4309  154.1915 C.ar    1  UNL1        0.0309
     21 C         142.3218  130.6754  153.8790 C.ar    1  UNL1        0.1402
     22 F         142.2661  129.4516  153.0135 F       1  UNL1       -0.2042
     23 C         143.6351  131.1438  154.4321 C.ar    1  UNL1        0.0309
     24 C         143.6908  132.3676  155.2976 C.ar    1  UNL1        0.0170
     25 O         142.5721  144.3636  160.5039 O.3     1  UNL1       -0.4534
     26 C         142.3397  142.4374  165.5522 C.ar    1  UNL1        0.1739
     27 C         141.1226  143.2968  165.3784 C.ar    1  UNL1        0.0592
     28 C         140.8765  143.9932  164.0729 C.ar    1  UNL1        0.0875
     29 N         139.6595  144.8527  163.8991 N.ar    1  UNL1       -0.2435
     30 C         139.4133  145.5491  162.5936 C.ar    1  UNL1        0.1020
     31 C         140.3842  145.3860  161.4619 C.ar    1  UNL1        0.0581
     32 C         141.6012  144.5266  161.6356 C.ar    1  UNL1        0.1483
     33 C         141.8473  143.8302  162.9411 C.ar    1  UNL1        0.0554
     34 C         143.0644  142.9707  163.1150 C.ar    1  UNL1        0.0446
     35 C         143.3105  142.2743  164.4205 C.ar    1  UNL1        0.1726
     36 C         142.1642  140.3126  167.0370 C.3     1  UNL1        0.2526
     37 O         142.5858  141.7409  166.8578 O.3     1  UNL1       -0.4683
     38 O         144.5276  141.4149  164.5943 O.3     1  UNL1       -0.4684
     39 C         145.7405  141.6516  163.7441 C.3     1  UNL1        0.2526
@<TRIPOS>BOND
     1    36    37    1
     2    37    26    1
     3    26    27   ar
     4    27    28   ar
     5    28    29   ar
     6    29    30   ar
     7    30    31   ar
     8    31    32   ar
     9    32    25    1
    10    25     1    1
    11     1     2   ar
    12     2     3   ar
    13     3     4   ar
    14     4     7    1
    15     7     8   am
    16     8     9    2
    17     8    11    1
    18    11    12    1
    19    11    13    1
    20    11    14    1
    21    14    15    2
    22    14    16   am
    23    16    18    1
    24    18    19   ar
    25    19    20   ar
    26    20    21   ar
    27    21    22    1
    28    21    23   ar
    29    23    24   ar
    30     4     5   ar
    31     5     6   ar
    32    32    33   ar
    33    33    34   ar
    34    34    35   ar
    35    35    38    1
    36    38    39    1
    37    35    26   ar
    38    33    28   ar
    39     6     1   ar
    40    24    18   ar
    41     7    10    1
    42    16    17    1
