@<TRIPOS>MOLECULE
*****
 33 37 0 0 0
SMALL
GASTEIGER

@<TRIPOS>ATOM
      1 C         138.3250  141.2379  158.3952 C.ar    1  UNL1        0.1098
      2 C         138.5513  142.2347  159.4930 C.ar    1  UNL1        0.0891
      3 N         139.6252  141.9965  160.5127 N.ar    1  UNL1       -0.2900
      4 C         140.4728  140.7614  160.4348 C.ar    1  UNL1        0.1507
      5 N         141.5467  140.5231  161.4545 N.ar    1  UNL1       -0.2263
      6 C         142.3943  139.2880  161.3765 C.ar    1  UNL1        0.1005
      7 C         142.1680  138.2912  160.2788 C.ar    1  UNL1        0.0209
      8 C         141.0941  138.5294  159.2590 C.ar    1  UNL1        0.0078
      9 C         140.2465  139.7645  159.3370 C.ar    1  UNL1        0.0736
     10 C         139.1726  140.0028  158.3172 C.ar    1  UNL1        0.2043
     11 O         138.9463  139.0060  157.2194 O.2     1  UNL1       -0.2863
     12 C         139.8514  142.9933  161.6105 C.ar    1  UNL1        0.0660
     13 C         139.9161  144.4577  161.2922 C.ar    1  UNL1        0.0176
     14 C         140.1424  145.4545  162.3900 C.ar    1  UNL1        0.0021
     15 C         140.3040  144.9870  163.8061 C.ar    1  UNL1        0.0083
     16 C         140.2393  143.5225  164.1244 C.ar    1  UNL1        0.0434
     17 C         140.0131  142.5257  163.0266 C.ar    1  UNL1        0.0258
     18 C         140.4010  143.0550  165.5404 C.1     1  UNL1       -0.0595
     19 C         140.5626  142.5874  166.9565 C.1     1  UNL1       -0.0535
     20 C         140.7242  142.1198  168.3726 C.ar    1  UNL1        0.1130
     21 C         141.7980  142.7086  169.2389 C.ar    1  UNL1        0.0209
     22 C         141.9596  142.2410  170.6549 C.ar    1  UNL1        0.0778
     23 C         141.0475  141.1847  171.2047 C.ar    1  UNL1        0.3018
     24 N         139.9738  140.5959  170.3385 N.ar    1  UNL1       -0.1514
     25 O         139.0617  139.5396  170.8882 O.co2   1  UNL1       -0.6187
     26 C         139.8121  141.0635  168.9223 C.ar    1  UNL1        0.3099
     27 O         137.1336  142.8147  156.7086 O.2     1  UNL1       -0.2700
     28 C         137.2510  141.4762  157.3754 C.2     1  UNL1        0.2504
     29 N         136.2946  140.3759  157.0224 N.am    1  UNL1       -0.3024
     30 H         136.3717  139.4974  157.4600 H       1  UNL1        0.1497
     31 C         135.2207  140.6142  156.0026 C.3     1  UNL1        0.0720
     32 C         133.8075  140.9894  155.6677 C.3     1  UNL1        0.0213
     33 C         134.7737  140.6516  154.5713 C.3     1  UNL1        0.0213
@<TRIPOS>UNITY_ATOM_ATTR
24 1
charge 1
25 1
charge -1
@<TRIPOS>BOND
     1    27    28    2
     2    28    29   am
     3    29    31    1
     4    31    32    1
     5    32    33    1
     6    28     1    1
     7     1     2   ar
     8     2     3   ar
     9     3    12    1
    10    12    13   ar
    11    13    14   ar
    12    14    15   ar
    13    15    16   ar
    14    16    18    1
    15    18    19    3
    16    19    20    1
    17    20    21   ar
    18    21    22   ar
    19    22    23   ar
    20    23    24   ar
    21    24    25    1
    22    24    26   ar
    23    16    17   ar
    24     3     4   ar
    25     4     5   ar
    26     5     6   ar
    27     6     7   ar
    28     7     8   ar
    29     8     9   ar
    30     9    10   ar
    31    10    11    2
    32    33    31    1
    33    10     1   ar
    34    17    12   ar
    35     9     4   ar
    36    26    20   ar
    37    29    30    1
@<TRIPOS>MOLECULE
*****
 33 37 0 0 0
SMALL
GASTEIGER

@<TRIPOS>ATOM
      1 C         142.0013  140.3373  158.8065 C.ar    1  UNL1        0.1098
      2 C         141.1496  140.3904  160.0401 C.ar    1  UNL1        0.0891
      3 N         140.5306  141.6877  160.4688 N.ar    1  UNL1       -0.2900
      4 C         140.7632  142.9319  159.6639 C.ar    1  UNL1        0.1507
      5 N         140.1441  144.2292  160.0926 N.ar    1  UNL1       -0.2263
      6 C         140.3767  145.4734  159.2877 C.ar    1  UNL1        0.1005
      7 C         141.2283  145.4202  158.0541 C.ar    1  UNL1        0.0209
      8 C         141.8474  144.1230  157.6253 C.ar    1  UNL1        0.0078
      9 C         141.6148  142.8788  158.4303 C.ar    1  UNL1        0.0736
     10 C         142.2339  141.5815  158.0015 C.ar    1  UNL1        0.2043
     11 O         143.0855  141.5284  156.7679 O.2     1  UNL1       -0.2863
     12 C         139.6789  141.7408  161.7025 C.ar    1  UNL1        0.0660
     13 C         138.1842  141.7002  161.5843 C.ar    1  UNL1        0.0176
     14 C         137.3325  141.7533  162.8179 C.ar    1  UNL1        0.0021
     15 C         137.9756  141.8470  164.1698 C.ar    1  UNL1        0.0083
     16 C         139.4705  141.8876  164.2880 C.ar    1  UNL1        0.0434
     17 C         140.3221  141.8345  163.0544 C.ar    1  UNL1        0.0258
     18 C         140.1136  141.9813  165.6399 C.1     1  UNL1       -0.0595
     19 C         140.7567  142.0750  166.9918 C.1     1  UNL1       -0.0535
     20 C         141.3998  142.1687  168.3437 C.ar    1  UNL1        0.1130
     21 C         142.8917  142.2737  168.4589 C.ar    1  UNL1        0.0209
     22 C         143.5348  142.3675  169.8108 C.ar    1  UNL1        0.0778
     23 C         142.6860  142.3562  171.0475 C.ar    1  UNL1        0.3018
     24 N         141.1941  142.2512  170.9324 N.ar    1  UNL1       -0.1514
     25 O         140.3454  142.2399  172.1690 O.co2   1  UNL1       -0.6187
     26 C         140.5510  142.1575  169.5804 C.ar    1  UNL1        0.3099
     27 O         143.4094  138.2250  159.3591 O.2     1  UNL1       -0.2700
     28 C         142.6203  139.0400  158.3777 C.2     1  UNL1        0.2504
     29 N         142.4503  138.5577  156.9676 N.am    1  UNL1       -0.3024
     30 H         141.9324  139.0926  156.3235 H       1  UNL1        0.1497
     31 C         143.0693  137.2604  156.5389 C.3     1  UNL1        0.0720
     32 C         144.0494  136.5068  155.6895 C.3     1  UNL1        0.0213
     33 C         143.1614  135.7671  156.6456 C.3     1  UNL1        0.0213
@<TRIPOS>UNITY_ATOM_ATTR
24 1
charge 1
25 1
charge -1
@<TRIPOS>BOND
     1    27    28    2
     2    28    29   am
     3    29    31    1
     4    31    32    1
     5    32    33    1
     6    28     1    1
     7     1     2   ar
     8     2     3   ar
     9     3    12    1
    10    12    13   ar
    11    13    14   ar
    12    14    15   ar
    13    15    16   ar
    14    16    18    1
    15    18    19    3
    16    19    20    1
    17    20    21   ar
    18    21    22   ar
    19    22    23   ar
    20    23    24   ar
    21    24    25    1
    22    24    26   ar
    23    16    17   ar
    24     3     4   ar
    25     4     5   ar
    26     5     6   ar
    27     6     7   ar
    28     7     8   ar
    29     8     9   ar
    30     9    10   ar
    31    10    11    2
    32    33    31    1
    33    10     1   ar
    34    17    12   ar
    35     9     4   ar
    36    26    20   ar
    37    29    30    1
@<TRIPOS>MOLECULE
*****
 33 37 0 0 0
SMALL
GASTEIGER

@<TRIPOS>ATOM
      1 C         143.8081  132.4588  156.5666 C.ar    1  UNL1        0.1098
      2 C         143.8162  133.9260  156.8784 C.ar    1  UNL1        0.0891
      3 N         143.2670  134.9068  155.8852 N.ar    1  UNL1       -0.2900
      4 C         142.7096  134.4204  154.5803 C.ar    1  UNL1        0.1507
      5 N         142.1604  135.4012  153.5872 N.ar    1  UNL1       -0.2263
      6 C         141.6031  134.9147  152.2823 C.ar    1  UNL1        0.1005
      7 C         141.5950  133.4475  151.9706 C.ar    1  UNL1        0.0209
      8 C         142.1442  132.4667  152.9637 C.ar    1  UNL1        0.0078
      9 C         142.7015  132.9531  154.2685 C.ar    1  UNL1        0.0736
     10 C         143.2508  131.9723  155.2618 C.ar    1  UNL1        0.2043
     11 O         143.2427  130.5051  154.9500 O.2     1  UNL1       -0.2863
     12 C         143.2751  136.3740  156.1970 C.ar    1  UNL1        0.0660
     13 C         144.2255  137.2876  155.4814 C.ar    1  UNL1        0.0176
     14 C         144.2336  138.7548  155.7931 C.ar    1  UNL1        0.0021
     15 C         143.2913  139.3085  156.8204 C.ar    1  UNL1        0.0083
     16 C         142.3408  138.3949  157.5361 C.ar    1  UNL1        0.0434
     17 C         142.3327  136.9277  157.2243 C.ar    1  UNL1        0.0258
     18 C         141.3984  138.9486  158.5634 C.1     1  UNL1       -0.0595
     19 C         140.4561  139.5023  159.5907 C.1     1  UNL1       -0.0535
     20 C         139.5137  140.0560  160.6180 C.ar    1  UNL1        0.1130
     21 C         138.9323  139.1540  161.6659 C.ar    1  UNL1        0.0209
     22 C         137.9899  139.7076  162.6932 C.ar    1  UNL1        0.0778
     23 C         137.6289  141.1635  162.6726 C.ar    1  UNL1        0.3018
     24 N         138.2103  142.0655  161.6246 N.ar    1  UNL1       -0.1514
     25 O         137.8494  143.5213  161.6039 O.co2   1  UNL1       -0.6187
     26 C         139.1527  141.5118  160.5973 C.ar    1  UNL1        0.3099
     27 O         145.6359  131.7800  158.2837 O.2     1  UNL1       -0.2700
     28 C         144.3574  131.4780  157.5598 C.2     1  UNL1        0.2504
     29 N         143.6281  130.1952  157.8291 N.am    1  UNL1       -0.3024
     30 H         142.7889  129.9970  157.3540 H       1  UNL1        0.1497
     31 C         144.1773  129.2144  158.8223 C.3     1  UNL1        0.0720
     32 C         145.3094  128.3654  159.3197 C.3     1  UNL1        0.0213
     33 C         143.9965  128.3646  160.0450 C.3     1  UNL1        0.0213
@<TRIPOS>UNITY_ATOM_ATTR
24 1
charge 1
25 1
charge -1
@<TRIPOS>BOND
     1    27    28    2
     2    28    29   am
     3    29    31    1
     4    31    32    1
     5    32    33    1
     6    28     1    1
     7     1     2   ar
     8     2     3   ar
     9     3    12    1
    10    12    13   ar
    11    13    14   ar
    12    14    15   ar
    13    15    16   ar
    14    16    18    1
    15    18    19    3
    16    19    20    1
    17    20    21   ar
    18    21    22   ar
    19    22    23   ar
    20    23    24   ar
    21    24    25    1
    22    24    26   ar
    23    16    17   ar
    24     3     4   ar
    25     4     5   ar
    26     5     6   ar
    27     6     7   ar
    28     7     8   ar
    29     8     9   ar
    30     9    10   ar
    31    10    11    2
    32    33    31    1
    33    10     1   ar
    34    17    12   ar
    35     9     4   ar
    36    26    20   ar
    37    29    30    1
@<TRIPOS>MOLECULE
*****
 33 37 0 0 0
SMALL
GASTEIGER

@<TRIPOS>ATOM
      1 C         138.1162  141.4833  158.1879 C.ar    1  UNL1        0.1098
      2 C         138.1406  140.5425  159.3560 C.ar    1  UNL1        0.0891
      3 N         138.9077  140.9031  160.5935 N.ar    1  UNL1       -0.2900
      4 C         139.6504  142.2045  160.6630 C.ar    1  UNL1        0.1507
      5 N         140.4175  142.5651  161.9005 N.ar    1  UNL1       -0.2263
      6 C         141.1602  143.8665  161.9699 C.ar    1  UNL1        0.1005
      7 C         141.1357  144.8072  160.8018 C.ar    1  UNL1        0.0209
      8 C         140.3686  144.4466  159.5643 C.ar    1  UNL1        0.0078
      9 C         139.6260  143.1453  159.4949 C.ar    1  UNL1        0.0736
     10 C         138.8588  142.7846  158.2573 C.ar    1  UNL1        0.2043
     11 O         138.8344  143.7254  157.0893 O.2     1  UNL1       -0.2863
     12 C         138.9321  139.9624  161.7615 C.ar    1  UNL1        0.0660
     13 C         138.6485  138.5039  161.5559 C.ar    1  UNL1        0.0176
     14 C         138.6729  137.5631  162.7240 C.ar    1  UNL1        0.0021
     15 C         138.9809  138.0809  164.0977 C.ar    1  UNL1        0.0083
     16 C         139.2645  139.5394  164.3033 C.ar    1  UNL1        0.0434
     17 C         139.2401  140.4802  163.1353 C.ar    1  UNL1        0.0258
     18 C         139.5725  140.0572  165.6770 C.1     1  UNL1       -0.0595
     19 C         139.8805  140.5749  167.0507 C.1     1  UNL1       -0.0535
     20 C         140.1885  141.0927  168.4245 C.ar    1  UNL1        0.1130
     21 C         140.3708  140.1341  169.5637 C.ar    1  UNL1        0.0209
     22 C         140.6788  140.6518  170.9375 C.ar    1  UNL1        0.0778
     23 C         140.8045  142.1280  171.1720 C.ar    1  UNL1        0.3018
     24 N         140.6221  143.0866  170.0327 N.ar    1  UNL1       -0.1514
     25 O         140.7478  144.5628  170.2671 O.co2   1  UNL1       -0.6187
     26 C         140.3141  142.5689  168.6589 C.ar    1  UNL1        0.3099
     27 O         137.6059  139.8142  156.2633 O.2     1  UNL1       -0.2700
     28 C         137.3490  141.1226  156.9503 C.2     1  UNL1        0.2504
     29 N         136.3250  142.0704  156.3998 N.am    1  UNL1       -0.3024
     30 H         136.1564  142.9292  156.8507 H       1  UNL1        0.1497
     31 C         135.5579  141.7098  155.1623 C.3     1  UNL1        0.0720
     32 C         135.3490  141.8311  153.6819 C.3     1  UNL1        0.0213
     33 C         134.4380  140.9640  154.4993 C.3     1  UNL1        0.0213
@<TRIPOS>UNITY_ATOM_ATTR
24 1
charge 1
25 1
charge -1
@<TRIPOS>BOND
     1    27    28    2
     2    28    29   am
     3    29    31    1
     4    31    32    1
     5    32    33    1
     6    28     1    1
     7     1     2   ar
     8     2     3   ar
     9     3    12    1
    10    12    13   ar
    11    13    14   ar
    12    14    15   ar
    13    15    16   ar
    14    16    18    1
    15    18    19    3
    16    19    20    1
    17    20    21   ar
    18    21    22   ar
    19    22    23   ar
    20    23    24   ar
    21    24    25    1
    22    24    26   ar
    23    16    17   ar
    24     3     4   ar
    25     4     5   ar
    26     5     6   ar
    27     6     7   ar
    28     7     8   ar
    29     8     9   ar
    30     9    10   ar
    31    10    11    2
    32    33    31    1
    33    10     1   ar
    34    17    12   ar
    35     9     4   ar
    36    26    20   ar
    37    29    30    1
@<TRIPOS>MOLECULE
*****
 33 37 0 0 0
SMALL
GASTEIGER

@<TRIPOS>ATOM
      1 C         142.1138  138.0506  157.5204 C.ar    1  UNL1        0.1098
      2 C         141.1576  138.5189  158.5770 C.ar    1  UNL1        0.0891
      3 N         141.3796  139.8365  159.2586 N.ar    1  UNL1       -0.2900
      4 C         142.5578  140.6859  158.8836 C.ar    1  UNL1        0.1507
      5 N         142.7797  142.0035  159.5652 N.ar    1  UNL1       -0.2263
      6 C         143.9579  142.8528  159.1902 C.ar    1  UNL1        0.1005
      7 C         144.9140  142.3844  158.1336 C.ar    1  UNL1        0.0209
      8 C         144.6921  141.0668  157.4520 C.ar    1  UNL1        0.0078
      9 C         143.5140  140.2175  157.8270 C.ar    1  UNL1        0.0736
     10 C         143.2920  138.8998  157.1454 C.ar    1  UNL1        0.2043
     11 O         144.2481  138.4315  156.0888 O.2     1  UNL1       -0.2863
     12 C         140.4234  140.3048  160.3152 C.ar    1  UNL1        0.0660
     13 C         139.1386  140.9715  159.9217 C.ar    1  UNL1        0.0176
     14 C         138.1824  141.4398  160.9783 C.ar    1  UNL1        0.0021
     15 C         138.5110  141.2415  162.4284 C.ar    1  UNL1        0.0083
     16 C         139.7959  140.5748  162.8219 C.ar    1  UNL1        0.0434
     17 C         140.7521  140.1065  161.7653 C.ar    1  UNL1        0.0258
     18 C         140.1245  140.3765  164.2719 C.1     1  UNL1       -0.0595
     19 C         140.4531  140.1781  165.7219 C.1     1  UNL1       -0.0535
     20 C         140.7817  139.9799  167.1721 C.ar    1  UNL1        0.1130
     21 C         142.1950  139.6999  167.5893 C.ar    1  UNL1        0.0209
     22 C         142.5236  139.5016  169.0393 C.ar    1  UNL1        0.0778
     23 C         141.4389  139.5833  170.0722 C.ar    1  UNL1        0.3018
     24 N         140.0256  139.8632  169.6550 N.ar    1  UNL1       -0.1514
     25 O         138.9408  139.9449  170.6877 O.co2   1  UNL1       -0.6187
     26 C         139.6970  140.0615  168.2048 C.ar    1  UNL1        0.3099
     27 O         140.6502  136.5077  156.0279 O.2     1  UNL1       -0.2700
     28 C         141.8918  136.7329  156.8389 C.2     1  UNL1        0.2504
     29 N         142.9115  135.6404  156.9683 N.am    1  UNL1       -0.3024
     30 H         143.7264  135.7882  157.5006 H       1  UNL1        0.1497
     31 C         142.6895  134.3227  156.2868 C.3     1  UNL1        0.0720
     32 C         142.4234  133.5343  155.0387 C.3     1  UNL1        0.0213
     33 C         142.5712  132.8290  156.3542 C.3     1  UNL1        0.0213
@<TRIPOS>UNITY_ATOM_ATTR
24 1
charge 1
25 1
charge -1
@<TRIPOS>BOND
     1    27    28    2
     2    28    29   am
     3    29    31    1
     4    31    32    1
     5    32    33    1
     6    28     1    1
     7     1     2   ar
     8     2     3   ar
     9     3    12    1
    10    12    13   ar
    11    13    14   ar
    12    14    15   ar
    13    15    16   ar
    14    16    18    1
    15    18    19    3
    16    19    20    1
    17    20    21   ar
    18    21    22   ar
    19    22    23   ar
    20    23    24   ar
    21    24    25    1
    22    24    26   ar
    23    16    17   ar
    24     3     4   ar
    25     4     5   ar
    26     5     6   ar
    27     6     7   ar
    28     7     8   ar
    29     8     9   ar
    30     9    10   ar
    31    10    11    2
    32    33    31    1
    33    10     1   ar
    34    17    12   ar
    35     9     4   ar
    36    26    20   ar
    37    29    30    1
@<TRIPOS>MOLECULE
*****
 33 37 0 0 0
SMALL
GASTEIGER

@<TRIPOS>ATOM
      1 C         141.0878  143.4457  158.4601 C.ar    1  UNL1        0.1098
      2 C         140.2763  143.2700  159.7093 C.ar    1  UNL1        0.0891
      3 N         140.3405  141.9787  160.4699 N.ar    1  UNL1       -0.2900
      4 C         141.2162  140.8631  159.9812 C.ar    1  UNL1        0.1507
      5 N         141.2803  139.5718  160.7417 N.ar    1  UNL1       -0.2263
      6 C         142.1560  138.4564  160.2530 C.ar    1  UNL1        0.1005
      7 C         142.9674  138.6321  159.0037 C.ar    1  UNL1        0.0209
      8 C         142.9033  139.9234  158.2432 C.ar    1  UNL1        0.0078
      9 C         142.0276  141.0389  158.7319 C.ar    1  UNL1        0.0736
     10 C         141.9634  142.3302  157.9714 C.ar    1  UNL1        0.2043
     11 O         142.7749  142.5060  156.7221 O.2     1  UNL1       -0.2863
     12 C         139.5290  141.8029  161.7191 C.ar    1  UNL1        0.0660
     13 C         138.0627  141.5013  161.6248 C.ar    1  UNL1        0.0176
     14 C         137.2513  141.3255  162.8740 C.ar    1  UNL1        0.0021
     15 C         137.9061  141.4514  164.2176 C.ar    1  UNL1        0.0083
     16 C         139.3725  141.7530  164.3120 C.ar    1  UNL1        0.0434
     17 C         140.1840  141.9288  163.0628 C.ar    1  UNL1        0.0258
     18 C         140.0273  141.8789  165.6556 C.1     1  UNL1       -0.0595
     19 C         140.6822  142.0047  166.9992 C.1     1  UNL1       -0.0535
     20 C         141.3370  142.1306  168.3429 C.ar    1  UNL1        0.1130
     21 C         142.8271  142.2727  168.4407 C.ar    1  UNL1        0.0209
     22 C         143.4819  142.3985  169.7843 C.ar    1  UNL1        0.0778
     23 C         142.6467  142.3822  171.0302 C.ar    1  UNL1        0.3018
     24 N         141.1567  142.2401  170.9324 N.ar    1  UNL1       -0.1514
     25 O         140.3215  142.2238  172.1782 O.co2   1  UNL1       -0.6187
     26 C         140.5018  142.1143  169.5887 C.ar    1  UNL1        0.3099
     27 O         142.0612  145.7955  157.9298 O.2     1  UNL1       -0.2700
     28 C         141.0236  144.7371  157.6995 C.2     1  UNL1        0.2504
     29 N         139.9217  144.9700  156.7088 N.am    1  UNL1       -0.3024
     30 H         139.2406  144.2753  156.5577 H       1  UNL1        0.1497
     31 C         139.8574  146.2613  155.9483 C.3     1  UNL1        0.0720
     32 C         140.2982  147.1127  154.7947 C.3     1  UNL1        0.0213
     33 C         139.3054  147.6463  155.7845 C.3     1  UNL1        0.0213
@<TRIPOS>UNITY_ATOM_ATTR
24 1
charge 1
25 1
charge -1
@<TRIPOS>BOND
     1    27    28    2
     2    28    29   am
     3    29    31    1
     4    31    32    1
     5    32    33    1
     6    28     1    1
     7     1     2   ar
     8     2     3   ar
     9     3    12    1
    10    12    13   ar
    11    13    14   ar
    12    14    15   ar
    13    15    16   ar
    14    16    18    1
    15    18    19    3
    16    19    20    1
    17    20    21   ar
    18    21    22   ar
    19    22    23   ar
    20    23    24   ar
    21    24    25    1
    22    24    26   ar
    23    16    17   ar
    24     3     4   ar
    25     4     5   ar
    26     5     6   ar
    27     6     7   ar
    28     7     8   ar
    29     8     9   ar
    30     9    10   ar
    31    10    11    2
    32    33    31    1
    33    10     1   ar
    34    17    12   ar
    35     9     4   ar
    36    26    20   ar
    37    29    30    1
@<TRIPOS>MOLECULE
*****
 33 37 0 0 0
SMALL
GASTEIGER

@<TRIPOS>ATOM
      1 C         141.9254  139.9360  158.5196 C.ar    1  UNL1        0.1098
      2 C         142.6323  140.1097  159.8311 C.ar    1  UNL1        0.0891
      3 N         142.6377  141.4479  160.5087 N.ar    1  UNL1       -0.2900
      4 C         141.9363  142.6125  159.8747 C.ar    1  UNL1        0.1507
      5 N         141.9417  143.9507  160.5523 N.ar    1  UNL1       -0.2263
      6 C         141.2403  145.1151  159.9183 C.ar    1  UNL1        0.1005
      7 C         140.5334  144.9414  158.6068 C.ar    1  UNL1        0.0209
      8 C         140.5279  143.6032  157.9292 C.ar    1  UNL1        0.0078
      9 C         141.2293  142.4387  158.5632 C.ar    1  UNL1        0.0736
     10 C         141.2239  141.1004  157.8856 C.ar    1  UNL1        0.2043
     11 O         140.5170  140.9267  156.5741 O.2     1  UNL1       -0.2863
     12 C         143.3447  141.6216  161.8202 C.ar    1  UNL1        0.0660
     13 C         144.8410  141.7192  161.8585 C.ar    1  UNL1        0.0176
     14 C         145.5479  141.8929  163.1701 C.ar    1  UNL1        0.0021
     15 C         144.7585  141.9691  164.4432 C.ar    1  UNL1        0.0083
     16 C         143.2621  141.8716  164.4049 C.ar    1  UNL1        0.0434
     17 C         142.5552  141.6978  163.0934 C.ar    1  UNL1        0.0258
     18 C         142.4727  141.9478  165.6781 C.1     1  UNL1       -0.0595
     19 C         141.6833  142.0240  166.9513 C.1     1  UNL1       -0.0535
     20 C         140.8939  142.1002  168.2245 C.ar    1  UNL1        0.1130
     21 C         140.9031  143.3602  169.0384 C.ar    1  UNL1        0.0209
     22 C         140.1138  143.4365  170.3115 C.ar    1  UNL1        0.0778
     23 C         139.3152  142.2527  170.7710 C.ar    1  UNL1        0.3018
     24 N         139.3060  140.9927  169.9572 N.ar    1  UNL1       -0.1514
     25 O         138.5075  139.8090  170.4166 O.co2   1  UNL1       -0.6187
     26 C         140.0954  140.9165  168.6839 C.ar    1  UNL1        0.3099
     27 O         140.6310  137.8506  157.6676 O.2     1  UNL1       -0.2700
     28 C         141.9199  138.5977  157.8420 C.2     1  UNL1        0.2504
     29 N         143.2035  138.0066  157.3389 N.am    1  UNL1       -0.3024
     30 H         144.0494  138.4969  157.4534 H       1  UNL1        0.1497
     31 C         143.1981  136.6684  156.6613 C.3     1  UNL1        0.0720
     32 C         143.7242  135.7471  155.6010 C.3     1  UNL1        0.0213
     33 C         142.6627  135.2718  156.5481 C.3     1  UNL1        0.0213
@<TRIPOS>UNITY_ATOM_ATTR
24 1
charge 1
25 1
charge -1
@<TRIPOS>BOND
     1    27    28    2
     2    28    29   am
     3    29    31    1
     4    31    32    1
     5    32    33    1
     6    28     1    1
     7     1     2   ar
     8     2     3   ar
     9     3    12    1
    10    12    13   ar
    11    13    14   ar
    12    14    15   ar
    13    15    16   ar
    14    16    18    1
    15    18    19    3
    16    19    20    1
    17    20    21   ar
    18    21    22   ar
    19    22    23   ar
    20    23    24   ar
    21    24    25    1
    22    24    26   ar
    23    16    17   ar
    24     3     4   ar
    25     4     5   ar
    26     5     6   ar
    27     6     7   ar
    28     7     8   ar
    29     8     9   ar
    30     9    10   ar
    31    10    11    2
    32    33    31    1
    33    10     1   ar
    34    17    12   ar
    35     9     4   ar
    36    26    20   ar
    37    29    30    1
@<TRIPOS>MOLECULE
*****
 33 37 0 0 0
SMALL
GASTEIGER

@<TRIPOS>ATOM
      1 C         144.0184  141.7635  158.6363 C.ar    1  UNL1        0.1098
      2 C         143.4865  142.6565  159.7179 C.ar    1  UNL1        0.0891
      3 N         142.2160  142.2974  160.4297 N.ar    1  UNL1       -0.2900
      4 C         141.4773  141.0452  160.0600 C.ar    1  UNL1        0.1507
      5 N         140.2068  140.6861  160.7719 N.ar    1  UNL1       -0.2263
      6 C         139.4681  139.4341  160.4022 C.ar    1  UNL1        0.1005
      7 C         140.0000  138.5411  159.3206 C.ar    1  UNL1        0.0209
      8 C         141.2705  138.9002  158.6088 C.ar    1  UNL1        0.0078
      9 C         142.0092  140.1523  158.9785 C.ar    1  UNL1        0.0736
     10 C         143.2798  140.5115  158.2666 C.ar    1  UNL1        0.2043
     11 O         143.8116  139.6185  157.1850 O.2     1  UNL1       -0.2863
     12 C         141.6842  143.1903  161.5113 C.ar    1  UNL1        0.0660
     13 C         141.1848  144.5635  161.1722 C.ar    1  UNL1        0.0176
     14 C         140.6530  145.4564  162.2537 C.ar    1  UNL1        0.0021
     15 C         140.6204  144.9762  163.6744 C.ar    1  UNL1        0.0083
     16 C         141.1198  143.6030  164.0135 C.ar    1  UNL1        0.0434
     17 C         141.6516  142.7100  162.9320 C.ar    1  UNL1        0.0258
     18 C         141.0872  143.1227  165.4342 C.1     1  UNL1       -0.0595
     19 C         141.0547  142.6425  166.8548 C.1     1  UNL1       -0.0535
     20 C         141.0221  142.1623  168.2756 C.ar    1  UNL1        0.1130
     21 C         142.0445  142.6539  169.2570 C.ar    1  UNL1        0.0209
     22 C         142.0120  142.1737  170.6776 C.ar    1  UNL1        0.0778
     23 C         140.9572  141.2019  171.1169 C.ar    1  UNL1        0.3018
     24 N         139.9348  140.7103  170.1355 N.ar    1  UNL1       -0.1514
     25 O         138.8800  139.7385  170.5748 O.co2   1  UNL1       -0.6187
     26 C         139.9673  141.1905  168.7148 C.ar    1  UNL1        0.3099
     27 O         146.3353  142.9391  158.6234 O.2     1  UNL1       -0.2700
     28 C         145.2890  142.1227  157.9244 C.2     1  UNL1        0.2504
     29 N         145.5132  141.6654  156.5135 N.am    1  UNL1       -0.3024
     30 H         144.8264  141.1296  156.0547 H       1  UNL1        0.1497
     31 C         146.7837  142.0245  155.8017 C.3     1  UNL1        0.0720
     32 C         148.2821  142.0155  155.7343 C.3     1  UNL1        0.0213
     33 C         147.4859  142.6555  154.6360 C.3     1  UNL1        0.0213
@<TRIPOS>UNITY_ATOM_ATTR
24 1
charge 1
25 1
charge -1
@<TRIPOS>BOND
     1    27    28    2
     2    28    29   am
     3    29    31    1
     4    31    32    1
     5    32    33    1
     6    28     1    1
     7     1     2   ar
     8     2     3   ar
     9     3    12    1
    10    12    13   ar
    11    13    14   ar
    12    14    15   ar
    13    15    16   ar
    14    16    18    1
    15    18    19    3
    16    19    20    1
    17    20    21   ar
    18    21    22   ar
    19    22    23   ar
    20    23    24   ar
    21    24    25    1
    22    24    26   ar
    23    16    17   ar
    24     3     4   ar
    25     4     5   ar
    26     5     6   ar
    27     6     7   ar
    28     7     8   ar
    29     8     9   ar
    30     9    10   ar
    31    10    11    2
    32    33    31    1
    33    10     1   ar
    34    17    12   ar
    35     9     4   ar
    36    26    20   ar
    37    29    30    1
@<TRIPOS>MOLECULE
*****
 33 37 0 0 0
SMALL
GASTEIGER

@<TRIPOS>ATOM
      1 C         142.8815  142.4639  169.5498 C.ar    1  UNL1        0.1098
      2 C         143.2500  142.0447  168.1575 C.ar    1  UNL1        0.0891
      3 N         142.3246  141.1660  167.3691 N.ar    1  UNL1       -0.2900
      4 C         141.0307  140.7064  167.9731 C.ar    1  UNL1        0.1507
      5 N         140.1053  139.8277  167.1847 N.ar    1  UNL1       -0.2263
      6 C         138.8114  139.3683  167.7887 C.ar    1  UNL1        0.1005
      7 C         138.4430  139.7875  169.1810 C.ar    1  UNL1        0.0209
      8 C         139.3683  140.6662  169.9693 C.ar    1  UNL1        0.0078
      9 C         140.6622  141.1257  169.3654 C.ar    1  UNL1        0.0736
     10 C         141.5876  142.0044  170.1537 C.ar    1  UNL1        0.2043
     11 O         141.2192  142.4236  171.5460 O.2     1  UNL1       -0.2863
     12 C         142.6931  140.7467  165.9768 C.ar    1  UNL1        0.0660
     13 C         143.4049  139.4463  165.7488 C.ar    1  UNL1        0.0176
     14 C         143.7734  139.0271  164.3565 C.ar    1  UNL1        0.0021
     15 C         143.4300  139.9083  163.1922 C.ar    1  UNL1        0.0083
     16 C         142.7181  141.2088  163.4203 C.ar    1  UNL1        0.0434
     17 C         142.3496  141.6280  164.8126 C.ar    1  UNL1        0.0258
     18 C         142.3747  142.0900  162.2560 C.1     1  UNL1       -0.0595
     19 C         142.0313  142.9713  161.0918 C.1     1  UNL1       -0.0535
     20 C         141.6879  143.8526  159.9275 C.ar    1  UNL1        0.1130
     21 C         140.6387  144.9144  160.0745 C.ar    1  UNL1        0.0209
     22 C         140.2952  145.7957  158.9103 C.ar    1  UNL1        0.0778
     23 C         141.0011  145.6151  157.5990 C.ar    1  UNL1        0.3018
     24 N         142.0503  144.5533  157.4521 N.ar    1  UNL1       -0.1514
     25 O         142.7561  144.3727  156.1409 O.co2   1  UNL1       -0.6187
     26 C         142.3937  143.6720  158.6164 C.ar    1  UNL1        0.3099
     27 O         143.2486  144.3346  171.3149 O.2     1  UNL1       -0.2700
     28 C         143.8069  143.3426  170.3381 C.2     1  UNL1        0.2504
     29 N         145.2907  143.2293  170.1496 N.am    1  UNL1       -0.3024
     30 H         145.6572  142.5783  169.5084 H       1  UNL1        0.1497
     31 C         146.2162  144.1080  170.9379 C.3     1  UNL1        0.0720
     32 C         147.5753  144.3794  171.5115 C.3     1  UNL1        0.0213
     33 C         146.4600  145.3585  171.7295 C.3     1  UNL1        0.0213
@<TRIPOS>UNITY_ATOM_ATTR
24 1
charge 1
25 1
charge -1
@<TRIPOS>BOND
     1    27    28    2
     2    28    29   am
     3    29    31    1
     4    31    32    1
     5    32    33    1
     6    28     1    1
     7     1     2   ar
     8     2     3   ar
     9     3    12    1
    10    12    13   ar
    11    13    14   ar
    12    14    15   ar
    13    15    16   ar
    14    16    18    1
    15    18    19    3
    16    19    20    1
    17    20    21   ar
    18    21    22   ar
    19    22    23   ar
    20    23    24   ar
    21    24    25    1
    22    24    26   ar
    23    16    17   ar
    24     3     4   ar
    25     4     5   ar
    26     5     6   ar
    27     6     7   ar
    28     7     8   ar
    29     8     9   ar
    30     9    10   ar
    31    10    11    2
    32    33    31    1
    33    10     1   ar
    34    17    12   ar
    35     9     4   ar
    36    26    20   ar
    37    29    30    1
