@<TRIPOS>MOLECULE
*****
 30 34 0 0 0
SMALL
GASTEIGER

@<TRIPOS>ATOM
      1 C         140.7317  140.4295  164.0047 C.ar    1  UNL1        0.1171
      2 C         139.5786  139.4722  164.0683 C.ar    1  UNL1        0.0978
      3 N         139.1233  139.3891  165.4951 N.ar    1  UNL1       -0.3089
      4 C         139.9951  140.2949  166.3134 C.ar    1  UNL1        0.1521
      5 N         140.9891  140.9380  165.3922 N.ar    1  UNL1       -0.2266
      6 C         139.7710  140.4172  167.7915 C.3     1  UNL1        0.1933
      7 O         138.6753  139.6337  168.4514 O.3     1  UNL1       -0.3422
      8 C         137.8036  138.7278  167.6332 C.3     1  UNL1        0.1675
      9 C         138.0276  138.6055  166.1550 C.3     1  UNL1        0.1393
     10 C         143.4848  140.2794  159.4514 C.2     1  UNL1        0.1350
     11 C         144.0651  141.3349  158.5576 C.2     1  UNL1        0.0988
     12 C         143.9062  142.7846  158.9078 C.2     1  UNL1        0.0143
     13 C         143.1669  143.1791  160.1520 C.2     1  UNL1        0.0162
     14 C         142.5866  142.1235  161.0459 C.2     1  UNL1        0.0700
     15 N         141.8129  142.2086  162.3281 N.2     1  UNL1       -0.2477
     16 C         141.4936  140.8112  162.7703 C.2     1  UNL1        0.0965
     17 C         142.0700  139.8626  161.7614 C.2     1  UNL1        0.0077
     18 C         142.7455  140.6737  160.6956 C.3     1  UNL1        0.1210
     19 C         142.5245  138.0942  158.4253 C.3     1  UNL1        0.2520
     20 O         143.6437  138.8295  159.1012 O.2     1  UNL1       -0.4743
     21 C         144.8044  140.9405  157.3134 C.1     1  UNL1        0.1032
     22 N         145.5437  140.5461  156.0692 N.1     1  UNL1       -0.1907
     23 C         140.6428  141.3231  168.6097 C.ar    1  UNL1        0.0100
     24 C         140.1462  142.6804  169.0111 C.ar    1  UNL1       -0.0017
     25 C         141.0179  143.5862  169.8293 C.ar    1  UNL1        0.0020
     26 C         142.3864  143.1348  170.2462 C.ar    1  UNL1        0.0293
     27 C         142.8830  141.7775  169.8448 C.ar    1  UNL1        0.1359
     28 F         144.2513  141.3260  170.2616 F       1  UNL1       -0.2045
     29 C         142.0111  140.8717  169.0266 C.ar    1  UNL1        0.0043
     30 C         142.5078  139.5144  168.6252 C.3     1  UNL1        0.0331
@<TRIPOS>BOND
     1    19    20    1
     2    20    10    1
     3    10    11    2
     4    11    21    1
     5    21    22    3
     6    11    12    1
     7    12    13    2
     8    13    14    1
     9    14    15    2
    10    15    16    1
    11    16     1    1
    12     1     2   ar
    13     2     3   ar
    14     3     4   ar
    15     4     5   ar
    16     4     6    1
    17     6    23    1
    18    23    24   ar
    19    24    25   ar
    20    25    26   ar
    21    26    27   ar
    22    27    28    1
    23    27    29   ar
    24    29    30    1
    25     6     7    1
    26     7     8    1
    27     8     9    1
    28    16    17    2
    29    17    18    1
    30    18    10    1
    31    18    14    1
    32     5     1   ar
    33    29    23   ar
    34     9     3    1
@<TRIPOS>MOLECULE
*****
 30 34 0 0 0
SMALL
GASTEIGER

@<TRIPOS>ATOM
      1 C         142.3497  138.8595  160.1740 C.ar    1  UNL1        0.1171
      2 C         143.7246  139.3832  160.4661 C.ar    1  UNL1        0.0978
      3 N         143.7425  139.8731  161.8837 N.ar    1  UNL1       -0.3089
      4 C         142.3787  139.6520  162.4679 C.ar    1  UNL1        0.1521
      5 N         141.5179  139.0255  161.4111 N.ar    1  UNL1       -0.2266
      6 C         142.0969  140.0497  163.8864 C.3     1  UNL1        0.1933
      7 O         143.1789  140.6685  164.7210 O.3     1  UNL1       -0.3422
      8 C         144.5427  140.8896  164.1369 C.3     1  UNL1        0.1675
      9 C         144.8245  140.4918  162.7183 C.3     1  UNL1        0.1393
     10 C         142.1306  136.2480  155.5408 C.2     1  UNL1        0.1350
     11 C         141.0537  136.0464  154.5162 C.2     1  UNL1        0.0988
     12 C         139.7002  136.6597  154.7202 C.2     1  UNL1        0.0143
     13 C         139.4234  137.4746  155.9488 C.2     1  UNL1        0.0162
     14 C         140.5002  137.6762  156.9733 C.2     1  UNL1        0.0700
     15 N         140.5212  138.4238  158.2735 N.2     1  UNL1       -0.2477
     16 C         141.8878  138.2726  158.8731 C.2     1  UNL1        0.0965
     17 C         142.7114  137.4315  157.9435 C.2     1  UNL1        0.0077
     18 C         141.8538  137.0629  156.7694 C.3     1  UNL1        0.1210
     19 C         143.8312  134.3414  156.0129 C.3     1  UNL1        0.2520
     20 O         143.4842  135.6346  155.3368 O.2     1  UNL1       -0.4743
     21 C         141.3306  135.2315  153.2877 C.1     1  UNL1        0.1032
     22 N         141.6073  134.4166  152.0591 N.1     1  UNL1       -0.1907
     23 C         140.7330  139.8287  164.4705 C.ar    1  UNL1        0.0100
     24 C         139.8139  140.9933  164.6912 C.ar    1  UNL1       -0.0017
     25 C         138.4501  140.7722  165.2752 C.ar    1  UNL1        0.0020
     26 C         138.0054  139.3864  165.6385 C.ar    1  UNL1        0.0293
     27 C         138.9245  138.2218  165.4178 C.ar    1  UNL1        0.1359
     28 F         138.4799  136.8360  165.7811 F       1  UNL1       -0.2045
     29 C         140.2884  138.4429  164.8338 C.ar    1  UNL1        0.0043
     30 C         141.2075  137.2783  164.6130 C.3     1  UNL1        0.0331
@<TRIPOS>BOND
     1    19    20    1
     2    20    10    1
     3    10    11    2
     4    11    21    1
     5    21    22    3
     6    11    12    1
     7    12    13    2
     8    13    14    1
     9    14    15    2
    10    15    16    1
    11    16     1    1
    12     1     2   ar
    13     2     3   ar
    14     3     4   ar
    15     4     5   ar
    16     4     6    1
    17     6    23    1
    18    23    24   ar
    19    24    25   ar
    20    25    26   ar
    21    26    27   ar
    22    27    28    1
    23    27    29   ar
    24    29    30    1
    25     6     7    1
    26     7     8    1
    27     8     9    1
    28    16    17    2
    29    17    18    1
    30    18    10    1
    31    18    14    1
    32     5     1   ar
    33    29    23   ar
    34     9     3    1
@<TRIPOS>MOLECULE
*****
 30 34 0 0 0
SMALL
GASTEIGER

@<TRIPOS>ATOM
      1 C         142.9214  137.6513  158.8361 C.ar    1  UNL1        0.1171
      2 C         142.4670  138.4765  157.6689 C.ar    1  UNL1        0.0978
      3 N         142.3693  137.5750  156.4740 N.ar    1  UNL1       -0.3089
      4 C         142.7634  136.1926  156.9027 C.ar    1  UNL1        0.1521
      5 N         143.1046  136.2398  158.3627 N.ar    1  UNL1       -0.2266
      6 C         142.7605  135.0696  155.9084 C.3     1  UNL1        0.1933
      7 O         142.3637  135.3289  154.4852 O.3     1  UNL1       -0.3422
      8 C         141.9696  136.7112  154.0564 C.3     1  UNL1        0.1675
      9 C         141.9725  137.8343  155.0508 C.3     1  UNL1        0.1393
     10 C         142.7051  138.3609  164.1072 C.2     1  UNL1        0.1350
     11 C         143.4059  139.2871  165.0565 C.2     1  UNL1        0.0988
     12 C         144.4076  140.2755  164.5377 C.2     1  UNL1        0.0143
     13 C         144.7088  140.3379  163.0695 C.2     1  UNL1        0.0162
     14 C         144.0081  139.4117  162.1202 C.2     1  UNL1        0.0700
     15 N         144.0983  139.2429  160.6325 N.2     1  UNL1       -0.2477
     16 C         143.1521  138.1500  160.2319 C.2     1  UNL1        0.0965
     17 C         142.4772  137.6435  161.4720 C.2     1  UNL1        0.0077
     18 C         143.0062  138.4232  162.6391 C.3     1  UNL1        0.1210
     19 C         140.2386  137.6917  164.5745 C.3     1  UNL1        0.2520
     20 O         141.7033  137.3724  164.6260 O.2     1  UNL1       -0.4743
     21 C         143.1047  139.2247  166.5247 C.1     1  UNL1        0.1032
     22 N         142.8036  139.1623  167.9928 N.1     1  UNL1       -0.1907
     23 C         143.1546  133.6873  156.3372 C.ar    1  UNL1        0.0100
     24 C         144.3921  133.4813  157.1595 C.ar    1  UNL1       -0.0017
     25 C         144.7861  132.0990  157.5883 C.ar    1  UNL1        0.0020
     26 C         143.9426  130.9226  157.1948 C.ar    1  UNL1        0.0293
     27 C         142.7052  131.1286  156.3725 C.ar    1  UNL1        0.1359
     28 F         141.8617  129.9523  155.9789 F       1  UNL1       -0.2045
     29 C         142.3112  132.5110  155.9437 C.ar    1  UNL1        0.0043
     30 C         141.0737  132.7170  155.1214 C.3     1  UNL1        0.0331
@<TRIPOS>BOND
     1    19    20    1
     2    20    10    1
     3    10    11    2
     4    11    21    1
     5    21    22    3
     6    11    12    1
     7    12    13    2
     8    13    14    1
     9    14    15    2
    10    15    16    1
    11    16     1    1
    12     1     2   ar
    13     2     3   ar
    14     3     4   ar
    15     4     5   ar
    16     4     6    1
    17     6    23    1
    18    23    24   ar
    19    24    25   ar
    20    25    26   ar
    21    26    27   ar
    22    27    28    1
    23    27    29   ar
    24    29    30    1
    25     6     7    1
    26     7     8    1
    27     8     9    1
    28    16    17    2
    29    17    18    1
    30    18    10    1
    31    18    14    1
    32     5     1   ar
    33    29    23   ar
    34     9     3    1
@<TRIPOS>MOLECULE
*****
 30 34 0 0 0
SMALL
GASTEIGER

@<TRIPOS>ATOM
      1 C         141.8030  138.6655  158.9740 C.ar    1  UNL1        0.1171
      2 C         142.5596  139.6948  158.1879 C.ar    1  UNL1        0.0978
      3 N         143.2642  138.9941  157.0642 N.ar    1  UNL1       -0.3089
      4 C         142.9431  137.5317  157.1559 C.ar    1  UNL1        0.1521
      5 N         142.0400  137.3287  158.3363 N.ar    1  UNL1       -0.2266
      6 C         143.5145  136.5741  156.1528 C.3     1  UNL1        0.1933
      7 O         144.4070  137.0787  155.0579 O.3     1  UNL1       -0.3422
      8 C         144.7281  138.5411  154.9661 C.3     1  UNL1        0.1675
      9 C         144.1567  139.4988  155.9693 C.3     1  UNL1        0.1393
     10 C         139.7257  138.5522  163.8737 C.2     1  UNL1        0.1350
     11 C         138.5935  139.2808  164.5350 C.2     1  UNL1        0.0988
     12 C         137.7931  140.2848  163.7597 C.2     1  UNL1        0.0143
     13 C         138.1249  140.5603  162.3229 C.2     1  UNL1        0.0162
     14 C         139.2570  139.8317  161.6616 C.2     1  UNL1        0.0700
     15 N         139.8135  139.8932  160.2700 N.2     1  UNL1       -0.2477
     16 C         140.9578  138.9271  160.1853 C.2     1  UNL1        0.0965
     17 C         141.1086  138.2686  161.5246 C.2     1  UNL1        0.0077
     18 C         140.0574  138.8276  162.4370 C.3     1  UNL1        0.1210
     19 C         141.9086  137.8921  165.1182 C.3     1  UNL1        0.2520
     20 O         140.5260  137.5481  164.6490 O.2     1  UNL1       -0.4743
     21 C         138.2618  139.0052  165.9717 C.1     1  UNL1        0.1032
     22 N         137.9301  138.7298  167.4084 N.1     1  UNL1       -0.1907
     23 C         143.1934  135.1117  156.2446 C.ar    1  UNL1        0.0100
     24 C         143.9601  134.2332  157.1881 C.ar    1  UNL1       -0.0017
     25 C         143.6390  132.7709  157.2799 C.ar    1  UNL1        0.0020
     26 C         142.5510  132.1870  156.4280 C.ar    1  UNL1        0.0293
     27 C         141.7842  133.0655  155.4845 C.ar    1  UNL1        0.1359
     28 F         140.6963  132.4818  154.6327 F       1  UNL1       -0.2045
     29 C         142.1054  134.5279  155.3928 C.ar    1  UNL1        0.0043
     30 C         141.3386  135.4064  154.4493 C.3     1  UNL1        0.0331
@<TRIPOS>BOND
     1    19    20    1
     2    20    10    1
     3    10    11    2
     4    11    21    1
     5    21    22    3
     6    11    12    1
     7    12    13    2
     8    13    14    1
     9    14    15    2
    10    15    16    1
    11    16     1    1
    12     1     2   ar
    13     2     3   ar
    14     3     4   ar
    15     4     5   ar
    16     4     6    1
    17     6    23    1
    18    23    24   ar
    19    24    25   ar
    20    25    26   ar
    21    26    27   ar
    22    27    28    1
    23    27    29   ar
    24    29    30    1
    25     6     7    1
    26     7     8    1
    27     8     9    1
    28    16    17    2
    29    17    18    1
    30    18    10    1
    31    18    14    1
    32     5     1   ar
    33    29    23   ar
    34     9     3    1
@<TRIPOS>MOLECULE
*****
 30 34 0 0 0
SMALL
GASTEIGER

@<TRIPOS>ATOM
      1 C         142.7141  137.2163  157.3075 C.ar    1  UNL1        0.1171
      2 C         143.0289  138.5685  156.7397 C.ar    1  UNL1        0.0978
      3 N         142.8425  139.5832  157.8285 N.ar    1  UNL1       -0.3089
      4 C         142.4125  138.8582  159.0693 C.ar    1  UNL1        0.1521
      5 N         142.3332  137.3952  158.7472 N.ar    1  UNL1       -0.2266
      6 C         142.1489  139.6237  160.3320 C.3     1  UNL1        0.1933
      7 O         142.3151  141.1143  160.3540 O.3     1  UNL1       -0.3422
      8 C         142.7450  141.8394  159.1133 C.3     1  UNL1        0.1675
      9 C         143.0087  141.0738  157.8506 C.3     1  UNL1        0.1393
     10 C         144.1149  132.3819  155.5749 C.2     1  UNL1        0.1350
     11 C         143.5591  131.4536  154.5361 C.2     1  UNL1        0.0988
     12 C         142.3502  131.8529  153.7431 C.2     1  UNL1        0.0143
     13 C         141.6969  133.1806  153.9889 C.2     1  UNL1        0.0162
     14 C         142.2526  134.1090  155.0278 C.2     1  UNL1        0.0700
     15 N         141.8254  135.4712  155.4882 N.2     1  UNL1       -0.2477
     16 C         142.7704  135.9137  156.5657 C.2     1  UNL1        0.0965
     17 C         143.7816  134.8250  156.7713 C.2     1  UNL1        0.0077
     18 C         143.4616  133.7096  155.8208 C.3     1  UNL1        0.1210
     19 C         145.1860  131.6304  157.8195 C.3     1  UNL1        0.2520
     20 O         145.3239  131.9826  156.3679 O.2     1  UNL1       -0.4743
     21 C         144.2124  130.1259  154.2902 C.1     1  UNL1        0.1032
     22 N         144.8657  128.7982  154.0443 N.1     1  UNL1       -0.1907
     23 C         141.7189  138.8985  161.5727 C.ar    1  UNL1        0.0100
     24 C         142.6904  138.6955  162.6974 C.ar    1  UNL1       -0.0017
     25 C         142.2605  137.9704  163.9381 C.ar    1  UNL1        0.0020
     26 C         140.8590  137.4482  164.0541 C.ar    1  UNL1        0.0293
     27 C         139.8875  137.6513  162.9294 C.ar    1  UNL1        0.1359
     28 F         138.4861  137.1292  163.0453 F       1  UNL1       -0.2045
     29 C         140.3175  138.3764  161.6887 C.ar    1  UNL1        0.0043
     30 C         139.3461  138.5795  160.5640 C.3     1  UNL1        0.0331
@<TRIPOS>BOND
     1    19    20    1
     2    20    10    1
     3    10    11    2
     4    11    21    1
     5    21    22    3
     6    11    12    1
     7    12    13    2
     8    13    14    1
     9    14    15    2
    10    15    16    1
    11    16     1    1
    12     1     2   ar
    13     2     3   ar
    14     3     4   ar
    15     4     5   ar
    16     4     6    1
    17     6    23    1
    18    23    24   ar
    19    24    25   ar
    20    25    26   ar
    21    26    27   ar
    22    27    28    1
    23    27    29   ar
    24    29    30    1
    25     6     7    1
    26     7     8    1
    27     8     9    1
    28    16    17    2
    29    17    18    1
    30    18    10    1
    31    18    14    1
    32     5     1   ar
    33    29    23   ar
    34     9     3    1
@<TRIPOS>MOLECULE
*****
 30 34 0 0 0
SMALL
GASTEIGER

@<TRIPOS>ATOM
      1 C         142.7390  139.9592  160.3905 C.ar    1  UNL1        0.1171
      2 C         143.9927  139.6964  161.1710 C.ar    1  UNL1        0.0978
      3 N         144.1378  140.7832  162.1946 N.ar    1  UNL1       -0.3089
      4 C         142.9738  141.7178  162.0467 C.ar    1  UNL1        0.1521
      5 N         142.1093  141.2085  160.9317 N.ar    1  UNL1       -0.2266
      6 C         142.8516  142.9117  162.9465 C.3     1  UNL1        0.1933
      7 O         143.8932  143.1711  163.9942 O.3     1  UNL1       -0.3422
      8 C         145.0572  142.2367  164.1421 C.3     1  UNL1        0.1675
      9 C         145.1795  141.0427  163.2423 C.3     1  UNL1        0.1393
     10 C         142.1793  136.2698  156.5946 C.2     1  UNL1        0.1350
     11 C         141.0959  135.9592  155.6047 C.2     1  UNL1        0.0988
     12 C         139.8485  136.7915  155.5724 C.2     1  UNL1        0.0143
     13 C         139.6844  137.9345  156.5300 C.2     1  UNL1        0.0162
     14 C         140.7678  138.2450  157.5198 C.2     1  UNL1        0.0700
     15 N         140.8870  139.3003  158.5791 N.2     1  UNL1       -0.2477
     16 C         142.2082  139.1201  159.2661 C.2     1  UNL1        0.0965
     17 C         142.9055  137.9535  158.6314 C.2     1  UNL1        0.0077
     18 C         142.0152  137.4126  157.5521 C.3     1  UNL1        0.1210
     19 C         143.4982  134.2271  157.5101 C.3     1  UNL1        0.2520
     20 O         143.4268  135.4374  156.6269 O.2     1  UNL1       -0.4743
     21 C         141.2601  134.8163  154.6472 C.1     1  UNL1        0.1032
     22 N         141.4241  133.6734  153.6897 N.1     1  UNL1       -0.1907
     23 C         141.6876  143.8461  162.7986 C.ar    1  UNL1        0.0100
     24 C         141.5512  144.6845  161.5622 C.ar    1  UNL1       -0.0017
     25 C         140.3872  145.6190  161.4143 C.ar    1  UNL1        0.0020
     26 C         139.3595  145.7151  162.5028 C.ar    1  UNL1        0.0293
     27 C         139.4959  144.8768  163.7392 C.ar    1  UNL1        0.1359
     28 F         138.4683  144.9728  164.8276 F       1  UNL1       -0.2045
     29 C         140.6599  143.9423  163.8870 C.ar    1  UNL1        0.0043
     30 C         140.7963  143.1040  165.1234 C.3     1  UNL1        0.0331
@<TRIPOS>BOND
     1    19    20    1
     2    20    10    1
     3    10    11    2
     4    11    21    1
     5    21    22    3
     6    11    12    1
     7    12    13    2
     8    13    14    1
     9    14    15    2
    10    15    16    1
    11    16     1    1
    12     1     2   ar
    13     2     3   ar
    14     3     4   ar
    15     4     5   ar
    16     4     6    1
    17     6    23    1
    18    23    24   ar
    19    24    25   ar
    20    25    26   ar
    21    26    27   ar
    22    27    28    1
    23    27    29   ar
    24    29    30    1
    25     6     7    1
    26     7     8    1
    27     8     9    1
    28    16    17    2
    29    17    18    1
    30    18    10    1
    31    18    14    1
    32     5     1   ar
    33    29    23   ar
    34     9     3    1
@<TRIPOS>MOLECULE
*****
 30 34 0 0 0
SMALL
GASTEIGER

@<TRIPOS>ATOM
      1 C         139.6491  144.7055  157.0042 C.ar    1  UNL1        0.1171
      2 C         139.1811  143.3323  156.6230 C.ar    1  UNL1        0.0978
      3 N         139.2561  142.4619  157.8424 N.ar    1  UNL1       -0.3089
      4 C         139.7704  143.2972  158.9772 C.ar    1  UNL1        0.1521
      5 N         140.0133  144.6839  158.4592 N.ar    1  UNL1       -0.2266
      6 C         139.9512  142.6873  160.3356 C.3     1  UNL1        0.1933
      7 O         139.6176  141.2420  160.5593 O.3     1  UNL1       -0.3422
      8 C         139.1033  140.4067  159.4245 C.3     1  UNL1        0.1675
      9 C         138.9226  141.0167  158.0660 C.3     1  UNL1        0.1393
     10 C         139.0693  149.5269  154.8242 C.2     1  UNL1        0.1350
     11 C         139.5857  150.1638  153.5682 C.2     1  UNL1        0.0988
     12 C         140.4658  149.3825  152.6382 C.2     1  UNL1        0.0143
     13 C         140.8296  147.9642  152.9642 C.2     1  UNL1        0.0162
     14 C         140.3131  147.3273  154.2203 C.2     1  UNL1        0.0700
     15 N         140.5012  145.9574  154.8015 N.2     1  UNL1       -0.2477
     16 C         139.7373  145.8921  156.0908 C.2     1  UNL1        0.0965
     17 C         139.0771  147.2216  156.3063 C.2     1  UNL1        0.0077
     18 C         139.4329  148.1086  155.1502 C.3     1  UNL1        0.1210
     19 C         138.7978  151.1100  156.8663 C.3     1  UNL1        0.2520
     20 O         138.1891  150.3082  155.7542 O.2     1  UNL1       -0.4743
     21 C         139.2220  151.5821  153.2422 C.1     1  UNL1        0.1032
     22 N         138.8583  153.0003  152.9161 N.1     1  UNL1       -0.1907
     23 C         140.4654  143.5226  161.4704 C.ar    1  UNL1        0.0100
     24 C         141.9154  143.9027  161.5248 C.ar    1  UNL1       -0.0017
     25 C         142.4297  144.7381  162.6596 C.ar    1  UNL1        0.0020
     26 C         141.4940  145.1933  163.7400 C.ar    1  UNL1        0.0293
     27 C         140.0440  144.8132  163.6856 C.ar    1  UNL1        0.1359
     28 F         139.1082  145.2683  164.7659 F       1  UNL1       -0.2045
     29 C         139.5297  143.9778  162.5508 C.ar    1  UNL1        0.0043
     30 C         138.0797  143.5977  162.4964 C.3     1  UNL1        0.0331
@<TRIPOS>BOND
     1    19    20    1
     2    20    10    1
     3    10    11    2
     4    11    21    1
     5    21    22    3
     6    11    12    1
     7    12    13    2
     8    13    14    1
     9    14    15    2
    10    15    16    1
    11    16     1    1
    12     1     2   ar
    13     2     3   ar
    14     3     4   ar
    15     4     5   ar
    16     4     6    1
    17     6    23    1
    18    23    24   ar
    19    24    25   ar
    20    25    26   ar
    21    26    27   ar
    22    27    28    1
    23    27    29   ar
    24    29    30    1
    25     6     7    1
    26     7     8    1
    27     8     9    1
    28    16    17    2
    29    17    18    1
    30    18    10    1
    31    18    14    1
    32     5     1   ar
    33    29    23   ar
    34     9     3    1
@<TRIPOS>MOLECULE
*****
 30 34 0 0 0
SMALL
GASTEIGER

@<TRIPOS>ATOM
      1 C         140.3336  139.5063  164.4196 C.ar    1  UNL1        0.1171
      2 C         139.1336  138.6421  164.6712 C.ar    1  UNL1        0.0978
      3 N         138.7266  138.8198  166.1039 N.ar    1  UNL1       -0.3089
      4 C         139.6750  139.7938  166.7379 C.ar    1  UNL1        0.1521
      5 N         140.6682  140.2181  165.6968 N.ar    1  UNL1       -0.2266
      6 C         139.5117  140.1685  168.1811 C.3     1  UNL1        0.1933
      7 O         138.4000  139.5692  168.9904 O.3     1  UNL1       -0.3422
      8 C         137.4516  138.5952  168.3565 C.3     1  UNL1        0.1675
      9 C         137.6149  138.2205  166.9132 C.3     1  UNL1        0.1393
     10 C         143.2099  141.3586  160.3416 C.2     1  UNL1        0.1350
     11 C         143.6623  140.7654  159.0403 C.2     1  UNL1        0.0988
     12 C         143.2923  139.3547  158.6902 C.2     1  UNL1        0.0143
     13 C         142.4698  138.5369  159.6414 C.2     1  UNL1        0.0162
     14 C         142.0173  139.1300  160.9427 C.2     1  UNL1        0.0700
     15 N         141.2029  138.5707  162.0714 N.2     1  UNL1       -0.2477
     16 C         141.0696  139.6359  163.1190 C.2     1  UNL1        0.0965
     17 C         141.8017  140.8536  162.6379 C.2     1  UNL1        0.0077
     18 C         142.3874  140.5409  161.2928 C.3     1  UNL1        0.1210
     19 C         144.6244  143.0340  161.7352 C.3     1  UNL1        0.2520
     20 O         143.5799  142.7695  160.6916 O.2     1  UNL1       -0.4743
     21 C         144.4848  141.5832  158.0890 C.1     1  UNL1        0.1032
     22 N         145.3073  142.4009  157.1378 N.1     1  UNL1       -0.1907
     23 C         140.4601  141.1425  168.8150 C.ar    1  UNL1        0.0100
     24 C         140.0225  142.5531  169.0771 C.ar    1  UNL1       -0.0017
     25 C         140.9709  143.5271  169.7110 C.ar    1  UNL1        0.0020
     26 C         142.3571  143.0905  170.0827 C.ar    1  UNL1        0.0293
     27 C         142.7947  141.6799  169.8206 C.ar    1  UNL1        0.1359
     28 F         144.1807  141.2433  170.1923 F       1  UNL1       -0.2045
     29 C         141.8462  140.7060  169.1867 C.ar    1  UNL1        0.0043
     30 C         142.2838  139.2954  168.9245 C.3     1  UNL1        0.0331
@<TRIPOS>BOND
     1    19    20    1
     2    20    10    1
     3    10    11    2
     4    11    21    1
     5    21    22    3
     6    11    12    1
     7    12    13    2
     8    13    14    1
     9    14    15    2
    10    15    16    1
    11    16     1    1
    12     1     2   ar
    13     2     3   ar
    14     3     4   ar
    15     4     5   ar
    16     4     6    1
    17     6    23    1
    18    23    24   ar
    19    24    25   ar
    20    25    26   ar
    21    26    27   ar
    22    27    28    1
    23    27    29   ar
    24    29    30    1
    25     6     7    1
    26     7     8    1
    27     8     9    1
    28    16    17    2
    29    17    18    1
    30    18    10    1
    31    18    14    1
    32     5     1   ar
    33    29    23   ar
    34     9     3    1
@<TRIPOS>MOLECULE
*****
 30 34 0 0 0
SMALL
GASTEIGER

@<TRIPOS>ATOM
      1 C         141.9941  138.4420  159.7472 C.ar    1  UNL1        0.1171
      2 C         142.5132  139.5916  158.9354 C.ar    1  UNL1        0.0978
      3 N         143.0291  139.0464  157.6367 N.ar    1  UNL1       -0.3089
      4 C         142.8288  137.5598  157.6458 C.ar    1  UNL1        0.1521
      5 N         142.1892  137.1863  158.9502 N.ar    1  UNL1       -0.2266
      6 C         143.2548  136.7385  156.4652 C.3     1  UNL1        0.1933
      7 O         143.8810  137.4036  155.2754 O.3     1  UNL1       -0.3422
      8 C         144.0813  138.8902  155.2663 C.3     1  UNL1        0.1675
      9 C         143.6553  139.7116  156.4470 C.3     1  UNL1        0.1393
     10 C         140.9026  139.8284  164.7692 C.2     1  UNL1        0.1350
     11 C         139.8882  139.3670  165.7731 C.2     1  UNL1        0.0988
     12 C         138.9114  138.2880  165.4108 C.2     1  UNL1        0.0143
     13 C         138.9490  137.6702  164.0443 C.2     1  UNL1        0.0162
     14 C         139.9635  138.1316  163.0404 C.2     1  UNL1        0.0700
     15 N         140.2393  137.7122  161.6269 N.2     1  UNL1       -0.2477
     16 C         141.3866  138.5322  161.1157 C.2     1  UNL1        0.0965
     17 C         141.8199  139.4583  162.2133 C.2     1  UNL1        0.0077
     18 C         140.9403  139.2107  163.4028 C.3     1  UNL1        0.1210
     19 C         141.6111  142.3277  164.7305 C.3     1  UNL1        0.2520
     20 O         141.8795  140.9075  165.1316 O.2     1  UNL1       -0.4743
     21 C         139.8505  139.9848  167.1396 C.1     1  UNL1        0.1032
     22 N         139.8130  140.6025  168.5059 N.1     1  UNL1       -0.1907
     23 C         143.0546  135.2520  156.4743 C.ar    1  UNL1        0.0100
     24 C         143.9590  134.3783  157.2920 C.ar    1  UNL1       -0.0017
     25 C         143.7588  132.8918  157.3011 C.ar    1  UNL1        0.0020
     26 C         142.6540  132.2788  156.4925 C.ar    1  UNL1        0.0293
     27 C         141.7495  133.1524  155.6748 C.ar    1  UNL1        0.1359
     28 F         140.6447  132.5396  154.8662 F       1  UNL1       -0.2045
     29 C         141.9498  134.6390  155.6657 C.ar    1  UNL1        0.0043
     30 C         141.0453  135.5126  154.8480 C.3     1  UNL1        0.0331
@<TRIPOS>BOND
     1    19    20    1
     2    20    10    1
     3    10    11    2
     4    11    21    1
     5    21    22    3
     6    11    12    1
     7    12    13    2
     8    13    14    1
     9    14    15    2
    10    15    16    1
    11    16     1    1
    12     1     2   ar
    13     2     3   ar
    14     3     4   ar
    15     4     5   ar
    16     4     6    1
    17     6    23    1
    18    23    24   ar
    19    24    25   ar
    20    25    26   ar
    21    26    27   ar
    22    27    28    1
    23    27    29   ar
    24    29    30    1
    25     6     7    1
    26     7     8    1
    27     8     9    1
    28    16    17    2
    29    17    18    1
    30    18    10    1
    31    18    14    1
    32     5     1   ar
    33    29    23   ar
    34     9     3    1
