@<TRIPOS>MOLECULE
*****
 39 44 0 0 0
SMALL
GASTEIGER

@<TRIPOS>ATOM
      1 C         137.8678  143.0280  163.1913 C.3     1  UNL1        0.0932
      2 C         138.0941  142.8891  161.7149 C.3     1  UNL1        0.0286
      3 C         138.1031  141.5291  161.0822 C.3     1  UNL1        0.0193
      4 C         137.8859  140.3080  161.9258 C.3     1  UNL1        0.0700
      5 C         137.6596  140.4469  163.4021 C.3     1  UNL1        0.0193
      6 C         137.6506  141.8069  164.0349 C.3     1  UNL1        0.0286
      7 C         137.8723  141.0321  162.3176 C.3     1  UNL1        0.1562
      8 O         137.8642  142.2619  162.8897 O.3     1  UNL1       -0.3572
      9 N         137.8949  138.9480  161.2931 N.3     1  UNL1       -0.2926
     10 H         137.3504  139.0195  160.4336 H       1  UNL1        0.1236
     11 C         139.1972  138.2993  160.9280 C.3     1  UNL1        0.1152
     12 C         140.3711  138.3992  161.8564 C.ar    1  UNL1        0.0765
     13 C         140.4574  137.5022  163.0556 C.ar    1  UNL1        0.0193
     14 C         141.6313  137.6021  163.9840 C.ar    1  UNL1        0.0411
     15 C         142.7190  138.5990  163.7132 C.ar    1  UNL1        0.1708
     16 C         142.6327  139.4959  162.5140 C.ar    1  UNL1        0.1682
     17 N         141.4587  139.3960  161.5856 N.ar    1  UNL1       -0.2304
     18 N         143.7203  140.4927  162.2431 N.am    1  UNL1       -0.2639
     19 C         144.8943  140.5926  163.1715 C.2     1  UNL1        0.2718
     20 O         145.9820  141.5894  162.9007 O.2     1  UNL1       -0.2707
     21 C         144.9806  139.6957  164.3707 C.3     1  UNL1        0.2898
     22 O         143.8929  138.6988  164.6415 O.3     1  UNL1       -0.4628
     23 H         143.6637  141.0814  161.4560 H       1  UNL1        0.1565
     24 C         137.8588  144.3880  163.8239 C.3     1  UNL1        0.0319
     25 C         138.9332  144.7687  164.7990 C.3     1  UNL1        0.0304
     26 C         140.5666  141.5539  167.4909 C.ar    1  UNL1        0.2348
     27 N         140.0221  142.6255  166.5936 N.ar    1  UNL1       -0.2099
     28 C         140.8783  143.1964  165.5022 C.ar    1  UNL1        0.0980
     29 C         140.3339  144.2680  164.6049 C.ar    1  UNL1       -0.0013
     30 C         141.1900  144.8390  163.5136 C.ar    1  UNL1        0.0179
     31 C         142.5905  144.3383  163.3195 C.ar    1  UNL1        0.0986
     32 N         143.1350  143.2667  164.2169 N.ar    1  UNL1       -0.2423
     33 C         142.2789  142.6957  165.3082 C.ar    1  UNL1        0.0995
     34 C         142.8234  141.6241  166.2055 C.ar    1  UNL1        0.0356
     35 C         141.9673  141.0532  167.2969 C.ar    1  UNL1        0.1230
     36 C         139.7192  141.6068  169.9464 C.3     1  UNL1        0.2543
     37 O         139.7105  140.9829  168.5823 O.3     1  UNL1       -0.4557
     38 C         142.5117  139.9816  168.1942 C.1     1  UNL1        0.1052
     39 N         143.0562  138.9099  169.0915 N.1     1  UNL1       -0.1907
@<TRIPOS>BOND
     1    36    37    1
     2    37    26    1
     3    26    27   ar
     4    27    28   ar
     5    28    29   ar
     6    29    25    1
     7    25    24    1
     8    24     1    1
     9     1     2    1
    10     2     3    1
    11     3     4    1
    12     4     9    1
    13     9    11    1
    14    11    12    1
    15    12    13   ar
    16    13    14   ar
    17    14    15   ar
    18    15    16   ar
    19    16    17   ar
    20    16    18    1
    21    18    19   am
    22    19    20    2
    23    19    21    1
    24    21    22    1
    25     4     5    1
    26     5     6    1
    27     4     7    1
    28     7     8    1
    29    29    30   ar
    30    30    31   ar
    31    31    32   ar
    32    32    33   ar
    33    33    34   ar
    34    34    35   ar
    35    35    38    1
    36    38    39    3
    37    35    26   ar
    38    33    28   ar
    39     6     1    1
    40     8     1    1
    41    17    12   ar
    42    22    15    1
    43     9    10    1
    44    18    23    1
@<TRIPOS>MOLECULE
*****
 39 44 0 0 0
SMALL
GASTEIGER

@<TRIPOS>ATOM
      1 C         141.8914  138.0303  164.2198 C.3     1  UNL1        0.0932
      2 C         142.1229  138.3995  162.7844 C.3     1  UNL1        0.0286
      3 C         143.3380  139.1905  162.4001 C.3     1  UNL1        0.0193
      4 C         144.3216  139.6124  163.4510 C.3     1  UNL1        0.0700
      5 C         144.0902  139.2432  164.8863 C.3     1  UNL1        0.0193
      6 C         142.8750  138.4521  165.2707 C.3     1  UNL1        0.0286
      7 C         143.6705  139.1800  163.7099 C.3     1  UNL1        0.1562
      8 O         142.5717  138.4647  164.0575 O.3     1  UNL1       -0.3572
      9 N         145.5367  140.4034  163.0667 N.3     1  UNL1       -0.2926
     10 H         145.6462  140.3032  162.0575 H       1  UNL1        0.1236
     11 C         145.6011  141.8720  163.3656 C.3     1  UNL1        0.1152
     12 C         144.3730  142.7211  163.2222 C.ar    1  UNL1        0.0765
     13 C         143.6178  143.1597  164.4417 C.ar    1  UNL1        0.0193
     14 C         142.3896  144.0088  164.2983 C.ar    1  UNL1        0.0411
     15 C         141.9166  144.4194  162.9352 C.ar    1  UNL1        0.1708
     16 C         142.6718  143.9808  161.7157 C.ar    1  UNL1        0.1682
     17 N         143.9000  143.1316  161.8592 N.ar    1  UNL1       -0.2304
     18 N         142.1989  144.3913  160.3527 N.am    1  UNL1       -0.2639
     19 C         140.9707  145.2405  160.2092 C.2     1  UNL1        0.2718
     20 O         140.4977  145.6510  158.8463 O.2     1  UNL1       -0.2707
     21 C         140.2155  145.6791  161.4288 C.3     1  UNL1        0.2898
     22 O         140.6885  145.2685  162.7918 O.3     1  UNL1       -0.4628
     23 H         142.6946  144.1034  159.5523 H       1  UNL1        0.1565
     24 C         140.6763  137.2392  164.6041 C.3     1  UNL1        0.0319
     25 C         139.3992  137.9464  164.9491 C.3     1  UNL1        0.0304
     26 C         140.5679  140.6990  168.3117 C.ar    1  UNL1        0.2348
     27 N         140.1783  139.7815  167.1908 N.ar    1  UNL1       -0.2099
     28 C         139.6831  140.3499  165.8940 C.ar    1  UNL1        0.0980
     29 C         139.2935  139.4323  164.7731 C.ar    1  UNL1       -0.0013
     30 C         138.7983  140.0006  163.4763 C.ar    1  UNL1        0.0179
     31 C         138.6927  141.4865  163.3004 C.ar    1  UNL1        0.0986
     32 N         139.0822  142.4040  164.4212 N.ar    1  UNL1       -0.2423
     33 C         139.5774  141.8357  165.7180 C.ar    1  UNL1        0.0995
     34 C         139.9670  142.7533  166.8389 C.ar    1  UNL1        0.0356
     35 C         140.4622  142.1850  168.1357 C.ar    1  UNL1        0.1230
     36 C         142.4028  139.4587  169.6699 C.3     1  UNL1        0.2543
     37 O         141.0631  140.1307  169.6085 O.3     1  UNL1       -0.4557
     38 C         140.8518  143.1025  169.2566 C.1     1  UNL1        0.1052
     39 N         141.2413  144.0201  170.3774 N.1     1  UNL1       -0.1907
@<TRIPOS>BOND
     1    36    37    1
     2    37    26    1
     3    26    27   ar
     4    27    28   ar
     5    28    29   ar
     6    29    25    1
     7    25    24    1
     8    24     1    1
     9     1     2    1
    10     2     3    1
    11     3     4    1
    12     4     9    1
    13     9    11    1
    14    11    12    1
    15    12    13   ar
    16    13    14   ar
    17    14    15   ar
    18    15    16   ar
    19    16    17   ar
    20    16    18    1
    21    18    19   am
    22    19    20    2
    23    19    21    1
    24    21    22    1
    25     4     5    1
    26     5     6    1
    27     4     7    1
    28     7     8    1
    29    29    30   ar
    30    30    31   ar
    31    31    32   ar
    32    32    33   ar
    33    33    34   ar
    34    34    35   ar
    35    35    38    1
    36    38    39    3
    37    35    26   ar
    38    33    28   ar
    39     6     1    1
    40     8     1    1
    41    17    12   ar
    42    22    15    1
    43     9    10    1
    44    18    23    1
@<TRIPOS>MOLECULE
*****
 39 44 0 0 0
SMALL
GASTEIGER

@<TRIPOS>ATOM
      1 C         139.4910  137.7311  164.4519 C.3     1  UNL1        0.0932
      2 C         140.9335  137.4777  164.7764 C.3     1  UNL1        0.0286
      3 C         141.9533  137.4360  163.6772 C.3     1  UNL1        0.0193
      4 C         141.5308  137.6477  162.2536 C.3     1  UNL1        0.0700
      5 C         140.0884  137.9011  161.9291 C.3     1  UNL1        0.0193
      6 C         139.0685  137.9428  163.0283 C.3     1  UNL1        0.0286
      7 C         140.9357  137.6796  162.8219 C.3     1  UNL1        0.1562
      8 O         140.0136  137.7173  163.8158 O.3     1  UNL1       -0.3572
      9 N         142.5506  137.6060  161.1545 N.3     1  UNL1       -0.2926
     10 H         142.0546  137.8020  160.2850 H       1  UNL1        0.1236
     11 C         143.7346  138.5262  161.1945 C.3     1  UNL1        0.1152
     12 C         143.5613  139.9531  161.6232 C.ar    1  UNL1        0.0765
     13 C         142.6952  140.8776  160.8199 C.ar    1  UNL1        0.0193
     14 C         142.5219  142.3045  161.2486 C.ar    1  UNL1        0.0411
     15 C         143.2147  142.8070  162.4805 C.ar    1  UNL1        0.1708
     16 C         144.0807  141.8825  163.2838 C.ar    1  UNL1        0.1682
     17 N         144.2540  140.4555  162.8551 N.ar    1  UNL1       -0.2304
     18 N         144.7735  142.3849  164.5157 N.am    1  UNL1       -0.2639
     19 C         144.6002  143.8119  164.9444 C.2     1  UNL1        0.2718
     20 O         145.2929  144.3143  166.1763 O.2     1  UNL1       -0.2707
     21 C         143.7341  144.7364  164.1412 C.3     1  UNL1        0.2898
     22 O         143.0413  144.2339  162.9092 O.3     1  UNL1       -0.4628
     23 H         145.3419  141.7781  165.0429 H       1  UNL1        0.1565
     24 C         138.4712  137.7729  165.5510 C.3     1  UNL1        0.0319
     25 C         137.9833  139.0923  166.0718 C.3     1  UNL1        0.0304
     26 C         138.4554  142.6817  163.3992 C.ar    1  UNL1        0.2348
     27 N         138.2980  141.4852  164.2901 N.ar    1  UNL1       -0.2099
     28 C         139.1237  141.3645  165.5366 C.ar    1  UNL1        0.0980
     29 C         138.9663  140.1680  166.4275 C.ar    1  UNL1       -0.0013
     30 C         139.7919  140.0473  167.6740 C.ar    1  UNL1        0.0179
     31 C         140.7748  141.1231  168.0296 C.ar    1  UNL1        0.0986
     32 N         140.9322  142.3196  167.1387 N.ar    1  UNL1       -0.2423
     33 C         140.1066  142.4403  165.8922 C.ar    1  UNL1        0.0995
     34 C         140.2640  143.6368  165.0014 C.ar    1  UNL1        0.0356
     35 C         139.4384  143.7575  163.7549 C.ar    1  UNL1        0.1230
     36 C         138.2099  142.4058  160.8275 C.3     1  UNL1        0.2543
     37 O         137.6298  142.8025  162.1527 O.3     1  UNL1       -0.4557
     38 C         139.5957  144.9540  162.8640 C.1     1  UNL1        0.1052
     39 N         139.7531  146.1505  161.9731 N.1     1  UNL1       -0.1907
@<TRIPOS>BOND
     1    36    37    1
     2    37    26    1
     3    26    27   ar
     4    27    28   ar
     5    28    29   ar
     6    29    25    1
     7    25    24    1
     8    24     1    1
     9     1     2    1
    10     2     3    1
    11     3     4    1
    12     4     9    1
    13     9    11    1
    14    11    12    1
    15    12    13   ar
    16    13    14   ar
    17    14    15   ar
    18    15    16   ar
    19    16    17   ar
    20    16    18    1
    21    18    19   am
    22    19    20    2
    23    19    21    1
    24    21    22    1
    25     4     5    1
    26     5     6    1
    27     4     7    1
    28     7     8    1
    29    29    30   ar
    30    30    31   ar
    31    31    32   ar
    32    32    33   ar
    33    33    34   ar
    34    34    35   ar
    35    35    38    1
    36    38    39    3
    37    35    26   ar
    38    33    28   ar
    39     6     1    1
    40     8     1    1
    41    17    12   ar
    42    22    15    1
    43     9    10    1
    44    18    23    1
@<TRIPOS>MOLECULE
*****
 39 44 0 0 0
SMALL
GASTEIGER

@<TRIPOS>ATOM
      1 C         142.6146  138.4447  163.7648 C.3     1  UNL1        0.0932
      2 C         142.5316  138.5316  162.2696 C.3     1  UNL1        0.0286
      3 C         141.2523  138.1840  161.5679 C.3     1  UNL1        0.0193
      4 C         140.0558  137.7494  162.3614 C.3     1  UNL1        0.0700
      5 C         140.1387  137.6625  163.8566 C.3     1  UNL1        0.0193
      6 C         141.4181  138.0101  164.5583 C.3     1  UNL1        0.0286
      7 C         140.7352  137.9297  162.7904 C.3     1  UNL1        0.1562
      8 O         141.8920  138.2441  163.4248 O.3     1  UNL1       -0.3572
      9 N         138.7765  137.4017  161.6598 N.3     1  UNL1       -0.2926
     10 H         138.4504  136.5224  162.0607 H       1  UNL1        0.1236
     11 C         137.6168  138.3524  161.6999 C.3     1  UNL1        0.1152
     12 C         137.8604  139.8323  161.7183 C.ar    1  UNL1        0.0765
     13 C         138.2071  140.5511  160.4482 C.ar    1  UNL1        0.0193
     14 C         138.4508  142.0311  160.4665 C.ar    1  UNL1        0.0411
     15 C         138.3478  142.7922  161.7550 C.ar    1  UNL1        0.1708
     16 C         138.0011  142.0734  163.0251 C.ar    1  UNL1        0.1682
     17 N         137.7574  140.5934  163.0067 N.ar    1  UNL1       -0.2304
     18 N         137.8981  142.8345  164.3135 N.am    1  UNL1       -0.2639
     19 C         138.1417  144.3145  164.3319 C.2     1  UNL1        0.2718
     20 O         138.0387  145.0756  165.6203 O.2     1  UNL1       -0.2707
     21 C         138.4884  145.0333  163.0618 C.3     1  UNL1        0.2898
     22 O         138.5914  144.2722  161.7734 O.3     1  UNL1       -0.4628
     23 H         137.6705  142.3627  165.1471 H       1  UNL1        0.1565
     24 C         143.8939  138.7924  164.4664 C.3     1  UNL1        0.0319
     25 C         144.2453  140.2289  164.7173 C.3     1  UNL1        0.0304
     26 C         142.6032  140.7754  168.8712 C.ar    1  UNL1        0.2348
     27 N         143.1506  140.5932  167.4866 N.ar    1  UNL1       -0.2099
     28 C         142.6128  141.4157  166.3533 C.ar    1  UNL1        0.0980
     29 C         143.1602  141.2336  164.9686 C.ar    1  UNL1       -0.0013
     30 C         142.6225  142.0560  163.8354 C.ar    1  UNL1        0.0179
     31 C         141.5374  143.0606  164.0867 C.ar    1  UNL1        0.0986
     32 N         140.9900  143.2428  165.4713 N.ar    1  UNL1       -0.2423
     33 C         141.5277  142.4204  166.6046 C.ar    1  UNL1        0.0995
     34 C         140.9803  142.6025  167.9892 C.ar    1  UNL1        0.0356
     35 C         141.5181  141.7801  169.1225 C.ar    1  UNL1        0.1230
     36 C         142.6960  138.5307  170.1762 C.3     1  UNL1        0.2543
     37 O         143.1409  139.9529  170.0045 O.3     1  UNL1       -0.4557
     38 C         140.9707  141.9623  170.5072 C.1     1  UNL1        0.1052
     39 N         140.4233  142.1444  171.8918 N.1     1  UNL1       -0.1907
@<TRIPOS>BOND
     1    36    37    1
     2    37    26    1
     3    26    27   ar
     4    27    28   ar
     5    28    29   ar
     6    29    25    1
     7    25    24    1
     8    24     1    1
     9     1     2    1
    10     2     3    1
    11     3     4    1
    12     4     9    1
    13     9    11    1
    14    11    12    1
    15    12    13   ar
    16    13    14   ar
    17    14    15   ar
    18    15    16   ar
    19    16    17   ar
    20    16    18    1
    21    18    19   am
    22    19    20    2
    23    19    21    1
    24    21    22    1
    25     4     5    1
    26     5     6    1
    27     4     7    1
    28     7     8    1
    29    29    30   ar
    30    30    31   ar
    31    31    32   ar
    32    32    33   ar
    33    33    34   ar
    34    34    35   ar
    35    35    38    1
    36    38    39    3
    37    35    26   ar
    38    33    28   ar
    39     6     1    1
    40     8     1    1
    41    17    12   ar
    42    22    15    1
    43     9    10    1
    44    18    23    1
@<TRIPOS>MOLECULE
*****
 39 44 0 0 0
SMALL
GASTEIGER

@<TRIPOS>ATOM
      1 C         143.9488  139.2026  163.6743 C.3     1  UNL1        0.0932
      2 C         143.5411  139.0693  162.2369 C.3     1  UNL1        0.0286
      3 C         142.2737  138.3507  161.8803 C.3     1  UNL1        0.0193
      4 C         141.4139  137.7653  162.9611 C.3     1  UNL1        0.0700
      5 C         141.8215  137.8985  164.3984 C.3     1  UNL1        0.0193
      6 C         143.0890  138.6172  164.7551 C.3     1  UNL1        0.0286
      7 C         142.0995  138.1503  163.2054 C.3     1  UNL1        0.1562
      8 O         143.2456  138.8001  163.5278 O.3     1  UNL1       -0.3572
      9 N         140.1465  137.0467  162.6045 N.3     1  UNL1       -0.2926
     10 H         140.1960  136.1271  163.0430 H       1  UNL1        0.1236
     11 C         138.8191  137.6352  162.9813 C.3     1  UNL1        0.1152
     12 C         138.5399  139.0854  162.7186 C.ar    1  UNL1        0.0765
     13 C         138.2836  139.5581  161.3183 C.ar    1  UNL1        0.0193
     14 C         138.0044  141.0082  161.0555 C.ar    1  UNL1        0.0411
     15 C         137.9815  141.9858  162.1931 C.ar    1  UNL1        0.1708
     16 C         138.2379  141.5130  163.5934 C.ar    1  UNL1        0.1682
     17 N         138.5171  140.0628  163.8561 N.ar    1  UNL1       -0.2304
     18 N         138.2150  142.4905  164.7309 N.am    1  UNL1       -0.2639
     19 C         137.9358  143.9407  164.4682 C.2     1  UNL1        0.2718
     20 O         137.9129  144.9181  165.6058 O.2     1  UNL1       -0.2707
     21 C         137.6794  144.4134  163.0679 C.3     1  UNL1        0.2898
     22 O         137.7023  143.4359  161.9304 O.3     1  UNL1       -0.4628
     23 H         138.3833  142.1802  165.6500 H       1  UNL1        0.1565
     24 C         145.2162  139.9212  164.0309 C.3     1  UNL1        0.0319
     25 C         145.1975  141.4022  164.2678 C.3     1  UNL1        0.0304
     26 C         142.8892  143.5233  161.0393 C.ar    1  UNL1        0.2348
     27 N         143.6586  142.8162  162.1154 N.ar    1  UNL1       -0.2099
     28 C         143.1380  142.7996  163.5221 C.ar    1  UNL1        0.0980
     29 C         143.9074  142.0926  164.5983 C.ar    1  UNL1       -0.0013
     30 C         143.3868  142.0760  166.0049 C.ar    1  UNL1        0.0179
     31 C         142.0969  142.7663  166.3354 C.ar    1  UNL1        0.0986
     32 N         141.3274  143.4734  165.2593 N.ar    1  UNL1       -0.2423
     33 C         141.8480  143.4900  163.8526 C.ar    1  UNL1        0.0995
     34 C         141.0786  144.1970  162.7765 C.ar    1  UNL1        0.0356
     35 C         141.5992  144.2136  161.3698 C.ar    1  UNL1        0.1230
     36 C         144.1821  142.3673  159.1048 C.3     1  UNL1        0.2543
     37 O         143.4098  143.5399  159.6326 O.3     1  UNL1       -0.4557
     38 C         140.8297  144.9207  160.2937 C.1     1  UNL1        0.1052
     39 N         140.0603  145.6277  159.2175 N.1     1  UNL1       -0.1907
@<TRIPOS>BOND
     1    36    37    1
     2    37    26    1
     3    26    27   ar
     4    27    28   ar
     5    28    29   ar
     6    29    25    1
     7    25    24    1
     8    24     1    1
     9     1     2    1
    10     2     3    1
    11     3     4    1
    12     4     9    1
    13     9    11    1
    14    11    12    1
    15    12    13   ar
    16    13    14   ar
    17    14    15   ar
    18    15    16   ar
    19    16    17   ar
    20    16    18    1
    21    18    19   am
    22    19    20    2
    23    19    21    1
    24    21    22    1
    25     4     5    1
    26     5     6    1
    27     4     7    1
    28     7     8    1
    29    29    30   ar
    30    30    31   ar
    31    31    32   ar
    32    32    33   ar
    33    33    34   ar
    34    34    35   ar
    35    35    38    1
    36    38    39    3
    37    35    26   ar
    38    33    28   ar
    39     6     1    1
    40     8     1    1
    41    17    12   ar
    42    22    15    1
    43     9    10    1
    44    18    23    1
@<TRIPOS>MOLECULE
*****
 39 44 0 0 0
SMALL
GASTEIGER

@<TRIPOS>ATOM
      1 C         144.5343  142.6234  163.7449 C.3     1  UNL1        0.0932
      2 C         144.4188  143.3399  162.4321 C.3     1  UNL1        0.0286
      3 C         143.3939  144.4208  162.2552 C.3     1  UNL1        0.0193
      4 C         142.4845  144.7853  163.3911 C.3     1  UNL1        0.0700
      5 C         142.6000  144.0688  164.7038 C.3     1  UNL1        0.0193
      6 C         143.6249  142.9879  164.8807 C.3     1  UNL1        0.0286
      7 C         143.0306  144.1862  163.5356 C.3     1  UNL1        0.1562
      8 O         143.9573  143.2088  163.6955 O.3     1  UNL1       -0.3572
      9 N         141.4597  145.8662  163.2142 N.3     1  UNL1       -0.2926
     10 H         141.9616  146.7012  162.9122 H       1  UNL1        0.1236
     11 C         140.3236  145.6727  162.2539 C.3     1  UNL1        0.1152
     12 C         139.5939  144.3630  162.2094 C.ar    1  UNL1        0.0765
     13 C         138.4400  144.1155  163.1353 C.ar    1  UNL1        0.0193
     14 C         137.7103  142.8057  163.0909 C.ar    1  UNL1        0.0411
     15 C         138.1345  141.7434  162.1205 C.ar    1  UNL1        0.1708
     16 C         139.2884  141.9909  161.1946 C.ar    1  UNL1        0.1682
     17 N         140.0181  143.3007  161.2391 N.ar    1  UNL1       -0.2304
     18 N         139.7126  140.9286  160.2242 N.am    1  UNL1       -0.2639
     19 C         138.9829  139.6188  160.1797 C.2     1  UNL1        0.2718
     20 O         139.4071  138.5565  159.2094 O.2     1  UNL1       -0.2707
     21 C         137.8290  139.3713  161.1056 C.3     1  UNL1        0.2898
     22 O         137.4048  140.4336  162.0760 O.3     1  UNL1       -0.4628
     23 H         140.4699  141.0911  159.6166 H       1  UNL1        0.1565
     24 C         145.5591  141.5426  163.9217 C.3     1  UNL1        0.0319
     25 C         145.1242  140.1167  164.0886 C.3     1  UNL1        0.0304
     26 C         141.2204  139.4695  166.2313 C.ar    1  UNL1        0.2348
     27 N         142.5217  139.6852  165.5171 N.ar    1  UNL1       -0.2099
     28 C         142.6308  139.3876  164.0509 C.ar    1  UNL1        0.0980
     29 C         143.9321  139.6033  163.3367 C.ar    1  UNL1       -0.0013
     30 C         144.0413  139.3056  161.8706 C.ar    1  UNL1        0.0179
     31 C         142.8492  138.7923  161.1188 C.ar    1  UNL1        0.0986
     32 N         141.5479  138.5765  161.8330 N.ar    1  UNL1       -0.2423
     33 C         141.4387  138.8742  163.2991 C.ar    1  UNL1        0.0995
     34 C         140.1375  138.6584  164.0133 C.ar    1  UNL1        0.0356
     35 C         140.0283  138.9561  165.4794 C.ar    1  UNL1        0.1230
     36 C         142.3280  139.6896  168.5712 C.3     1  UNL1        0.2543
     37 O         141.1112  139.7671  167.6974 O.3     1  UNL1       -0.4557
     38 C         138.7270  138.7403  166.1936 C.1     1  UNL1        0.1052
     39 N         137.4257  138.5246  166.9079 N.1     1  UNL1       -0.1907
@<TRIPOS>BOND
     1    36    37    1
     2    37    26    1
     3    26    27   ar
     4    27    28   ar
     5    28    29   ar
     6    29    25    1
     7    25    24    1
     8    24     1    1
     9     1     2    1
    10     2     3    1
    11     3     4    1
    12     4     9    1
    13     9    11    1
    14    11    12    1
    15    12    13   ar
    16    13    14   ar
    17    14    15   ar
    18    15    16   ar
    19    16    17   ar
    20    16    18    1
    21    18    19   am
    22    19    20    2
    23    19    21    1
    24    21    22    1
    25     4     5    1
    26     5     6    1
    27     4     7    1
    28     7     8    1
    29    29    30   ar
    30    30    31   ar
    31    31    32   ar
    32    32    33   ar
    33    33    34   ar
    34    34    35   ar
    35    35    38    1
    36    38    39    3
    37    35    26   ar
    38    33    28   ar
    39     6     1    1
    40     8     1    1
    41    17    12   ar
    42    22    15    1
    43     9    10    1
    44    18    23    1
@<TRIPOS>MOLECULE
*****
 39 44 0 0 0
SMALL
GASTEIGER

@<TRIPOS>ATOM
      1 C         138.8737  143.0232  163.1673 C.3     1  UNL1        0.0932
      2 C         139.6012  143.4050  164.4224 C.3     1  UNL1        0.0286
      3 C         140.8860  144.1747  164.3399 C.3     1  UNL1        0.0193
      4 C         141.4433  144.5627  163.0025 C.3     1  UNL1        0.0700
      5 C         140.7159  144.1810  161.7475 C.3     1  UNL1        0.0193
      6 C         139.4311  143.4112  161.8299 C.3     1  UNL1        0.0286
      7 C         140.7361  144.1411  162.9973 C.3     1  UNL1        0.1562
      8 O         139.5743  143.4451  163.0718 O.3     1  UNL1       -0.3572
      9 N         142.7281  145.3325  162.9200 N.3     1  UNL1       -0.2926
     10 H         142.6686  146.0796  163.6119 H       1  UNL1        0.1236
     11 C         144.0364  144.6348  163.1475 C.3     1  UNL1        0.1152
     12 C         144.1288  143.1455  162.9942 C.ar    1  UNL1        0.0765
     13 C         144.5825  142.2996  164.1468 C.ar    1  UNL1        0.0193
     14 C         144.6749  140.8103  163.9935 C.ar    1  UNL1        0.0411
     15 C         144.3135  140.1669  162.6875 C.ar    1  UNL1        0.1708
     16 C         143.8597  141.0129  161.5349 C.ar    1  UNL1        0.1682
     17 N         143.7674  142.5022  161.6883 N.ar    1  UNL1       -0.2304
     18 N         143.4983  140.3695  160.2290 N.am    1  UNL1       -0.2639
     19 C         143.5907  138.8802  160.0756 C.2     1  UNL1        0.2718
     20 O         143.2293  138.2369  158.7697 O.2     1  UNL1       -0.2707
     21 C         144.0445  138.0343  161.2282 C.3     1  UNL1        0.2898
     22 O         144.4059  138.6777  162.5342 O.3     1  UNL1       -0.4628
     23 H         143.2005  140.9248  159.4725 H       1  UNL1        0.1565
     24 C         137.5890  142.2535  163.2498 C.3     1  UNL1        0.0319
     25 C         137.5776  140.8740  163.8388 C.3     1  UNL1        0.0304
     26 C         141.2249  139.4689  166.0688 C.ar    1  UNL1        0.2348
     27 N         140.0091  139.9372  165.3254 N.ar    1  UNL1       -0.2099
     28 C         139.6634  139.3330  163.9967 C.ar    1  UNL1        0.0980
     29 C         138.4476  139.8014  163.2534 C.ar    1  UNL1       -0.0013
     30 C         138.1018  139.1972  161.9247 C.ar    1  UNL1        0.0179
     31 C         138.9718  138.1246  161.3394 C.ar    1  UNL1        0.0986
     32 N         140.1876  137.6562  162.0828 N.ar    1  UNL1       -0.2423
     33 C         140.5334  138.2604  163.4114 C.ar    1  UNL1        0.0995
     34 C         141.7491  137.7920  164.1548 C.ar    1  UNL1        0.0356
     35 C         142.0949  138.3962  165.4834 C.ar    1  UNL1        0.1230
     36 C         140.5320  140.1564  168.4766 C.3     1  UNL1        0.2543
     37 O         141.5706  140.0731  167.3974 O.3     1  UNL1       -0.4557
     38 C         143.3106  137.9278  166.2267 C.1     1  UNL1        0.1052
     39 N         144.5264  137.4595  166.9701 N.1     1  UNL1       -0.1907
@<TRIPOS>BOND
     1    36    37    1
     2    37    26    1
     3    26    27   ar
     4    27    28   ar
     5    28    29   ar
     6    29    25    1
     7    25    24    1
     8    24     1    1
     9     1     2    1
    10     2     3    1
    11     3     4    1
    12     4     9    1
    13     9    11    1
    14    11    12    1
    15    12    13   ar
    16    13    14   ar
    17    14    15   ar
    18    15    16   ar
    19    16    17   ar
    20    16    18    1
    21    18    19   am
    22    19    20    2
    23    19    21    1
    24    21    22    1
    25     4     5    1
    26     5     6    1
    27     4     7    1
    28     7     8    1
    29    29    30   ar
    30    30    31   ar
    31    31    32   ar
    32    32    33   ar
    33    33    34   ar
    34    34    35   ar
    35    35    38    1
    36    38    39    3
    37    35    26   ar
    38    33    28   ar
    39     6     1    1
    40     8     1    1
    41    17    12   ar
    42    22    15    1
    43     9    10    1
    44    18    23    1
@<TRIPOS>MOLECULE
*****
 39 44 0 0 0
SMALL
GASTEIGER

@<TRIPOS>ATOM
      1 C         142.1449  137.9357  164.1698 C.3     1  UNL1        0.0932
      2 C         142.4345  138.2295  162.7276 C.3     1  UNL1        0.0286
      3 C         143.5966  139.1033  162.3589 C.3     1  UNL1        0.0193
      4 C         144.4691  139.6833  163.4322 C.3     1  UNL1        0.0700
      5 C         144.1796  139.3896  164.8744 C.3     1  UNL1        0.0193
      6 C         143.0175  138.5157  165.2432 C.3     1  UNL1        0.0286
      7 C         143.8437  139.2101  163.6832 C.3     1  UNL1        0.1562
      8 O         142.7929  138.4200  164.0166 O.3     1  UNL1       -0.3572
      9 N         145.6312  140.5571  163.0635 N.3     1  UNL1       -0.2926
     10 H         145.7343  140.4979  162.0504 H       1  UNL1        0.1236
     11 C         145.6131  142.0159  163.4124 C.3     1  UNL1        0.1152
     12 C         144.3500  142.8093  163.2541 C.ar    1  UNL1        0.0765
     13 C         143.5439  143.1849  164.4621 C.ar    1  UNL1        0.0193
     14 C         142.2808  143.9783  164.3039 C.ar    1  UNL1        0.0411
     15 C         141.8237  144.3961  162.9376 C.ar    1  UNL1        0.1708
     16 C         142.6298  144.0205  161.7296 C.ar    1  UNL1        0.1682
     17 N         143.8929  143.2271  161.8879 N.ar    1  UNL1       -0.2304
     18 N         142.1728  144.4383  160.3634 N.am    1  UNL1       -0.2639
     19 C         140.9096  145.2317  160.2052 C.2     1  UNL1        0.2718
     20 O         140.4526  145.6495  158.8390 O.2     1  UNL1       -0.2707
     21 C         140.1035  145.6073  161.4131 C.3     1  UNL1        0.2898
     22 O         140.5606  145.1895  162.7794 O.3     1  UNL1       -0.4628
     23 H         142.7018  144.1918  159.5706 H       1  UNL1        0.1565
     24 C         140.9829  137.0619  164.5386 C.3     1  UNL1        0.0319
     25 C         139.6289  137.6683  164.7597 C.3     1  UNL1        0.0304
     26 C         138.8620  139.9799  160.9757 C.ar    1  UNL1        0.2348
     27 N         139.1176  139.2094  162.2370 N.ar    1  UNL1       -0.2099
     28 C         139.2185  139.9301  163.5487 C.ar    1  UNL1        0.0980
     29 C         139.4742  139.1595  164.8101 C.ar    1  UNL1       -0.0013
     30 C         139.5751  139.8802  166.1217 C.ar    1  UNL1        0.0179
     31 C         139.4204  141.3713  166.1720 C.ar    1  UNL1        0.0986
     32 N         139.1648  142.1418  164.9107 N.ar    1  UNL1       -0.2423
     33 C         139.0638  141.4212  163.5991 C.ar    1  UNL1        0.0995
     34 C         138.8082  142.1917  162.3377 C.ar    1  UNL1        0.0356
     35 C         138.7073  141.4711  161.0261 C.ar    1  UNL1        0.1230
     36 C         140.0032  138.7732  158.9778 C.3     1  UNL1        0.2543
     37 O         138.7611  139.2593  159.6640 O.3     1  UNL1       -0.4557
     38 C         138.4516  142.2416  159.7647 C.1     1  UNL1        0.1052
     39 N         138.1960  143.0121  158.5034 N.1     1  UNL1       -0.1907
@<TRIPOS>BOND
     1    36    37    1
     2    37    26    1
     3    26    27   ar
     4    27    28   ar
     5    28    29   ar
     6    29    25    1
     7    25    24    1
     8    24     1    1
     9     1     2    1
    10     2     3    1
    11     3     4    1
    12     4     9    1
    13     9    11    1
    14    11    12    1
    15    12    13   ar
    16    13    14   ar
    17    14    15   ar
    18    15    16   ar
    19    16    17   ar
    20    16    18    1
    21    18    19   am
    22    19    20    2
    23    19    21    1
    24    21    22    1
    25     4     5    1
    26     5     6    1
    27     4     7    1
    28     7     8    1
    29    29    30   ar
    30    30    31   ar
    31    31    32   ar
    32    32    33   ar
    33    33    34   ar
    34    34    35   ar
    35    35    38    1
    36    38    39    3
    37    35    26   ar
    38    33    28   ar
    39     6     1    1
    40     8     1    1
    41    17    12   ar
    42    22    15    1
    43     9    10    1
    44    18    23    1
@<TRIPOS>MOLECULE
*****
 39 44 0 0 0
SMALL
GASTEIGER

@<TRIPOS>ATOM
      1 C         143.3017  143.9989  162.7807 C.3     1  UNL1        0.0932
      2 C         142.5963  143.8653  161.4636 C.3     1  UNL1        0.0286
      3 C         141.1728  144.3176  161.3260 C.3     1  UNL1        0.0193
      4 C         140.4546  144.9035  162.5054 C.3     1  UNL1        0.0700
      5 C         141.1599  145.0370  163.8224 C.3     1  UNL1        0.0193
      6 C         142.5835  144.5847  163.9601 C.3     1  UNL1        0.0286
      7 C         141.2343  144.6696  162.6293 C.3     1  UNL1        0.1562
      8 O         142.5215  144.2606  162.7537 O.3     1  UNL1       -0.3572
      9 N         139.0311  145.3558  162.3678 N.3     1  UNL1       -0.2926
     10 H         138.8972  145.6134  161.3900 H       1  UNL1        0.1236
     11 C         137.9105  144.4259  162.7279 C.3     1  UNL1        0.1152
     12 C         138.0549  142.9513  162.4940 C.ar    1  UNL1        0.0765
     13 C         138.0257  142.4073  161.0964 C.ar    1  UNL1        0.0193
     14 C         138.1702  140.9327  160.8624 C.ar    1  UNL1        0.0411
     15 C         138.3439  140.0021  162.0260 C.ar    1  UNL1        0.1708
     16 C         138.3731  140.5462  163.4236 C.ar    1  UNL1        0.1682
     17 N         138.2286  142.0208  163.6575 N.ar    1  UNL1       -0.2304
     18 N         138.5468  139.6157  164.5872 N.am    1  UNL1       -0.2639
     19 C         138.6913  138.1411  164.3532 C.2     1  UNL1        0.2718
     20 O         138.8650  137.2106  165.5168 O.2     1  UNL1       -0.2707
     21 C         138.6621  137.5970  162.9557 C.3     1  UNL1        0.2898
     22 O         138.4884  138.5276  161.7921 O.3     1  UNL1       -0.4628
     23 H         138.5660  139.9728  165.5044 H       1  UNL1        0.1565
     24 C         144.7252  143.5466  162.9183 C.3     1  UNL1        0.0319
     25 C         145.0642  142.4030  163.8279 C.3     1  UNL1        0.0304
     26 C         142.5891  141.5518  167.4884 C.ar    1  UNL1        0.2348
     27 N         143.4141  141.8355  166.2682 N.ar    1  UNL1       -0.2099
     28 C         143.3558  140.9077  165.0910 C.ar    1  UNL1        0.0980
     29 C         144.1808  141.1915  163.8708 C.ar    1  UNL1       -0.0013
     30 C         144.1225  140.2637  162.6936 C.ar    1  UNL1        0.0179
     31 C         143.2391  139.0522  162.7366 C.ar    1  UNL1        0.0986
     32 N         142.4141  138.7685  163.9567 N.ar    1  UNL1       -0.2423
     33 C         142.4724  139.6962  165.1339 C.ar    1  UNL1        0.0995
     34 C         141.6474  139.4125  166.3541 C.ar    1  UNL1        0.0356
     35 C         141.7057  140.3402  167.5313 C.ar    1  UNL1        0.1230
     36 C         143.7923  142.3950  169.6311 C.3     1  UNL1        0.2543
     37 O         142.6474  142.4795  168.6656 O.3     1  UNL1       -0.4557
     38 C         140.8806  140.0565  168.7515 C.1     1  UNL1        0.1052
     39 N         140.0556  139.7727  169.9716 N.1     1  UNL1       -0.1907
@<TRIPOS>BOND
     1    36    37    1
     2    37    26    1
     3    26    27   ar
     4    27    28   ar
     5    28    29   ar
     6    29    25    1
     7    25    24    1
     8    24     1    1
     9     1     2    1
    10     2     3    1
    11     3     4    1
    12     4     9    1
    13     9    11    1
    14    11    12    1
    15    12    13   ar
    16    13    14   ar
    17    14    15   ar
    18    15    16   ar
    19    16    17   ar
    20    16    18    1
    21    18    19   am
    22    19    20    2
    23    19    21    1
    24    21    22    1
    25     4     5    1
    26     5     6    1
    27     4     7    1
    28     7     8    1
    29    29    30   ar
    30    30    31   ar
    31    31    32   ar
    32    32    33   ar
    33    33    34   ar
    34    34    35   ar
    35    35    38    1
    36    38    39    3
    37    35    26   ar
    38    33    28   ar
    39     6     1    1
    40     8     1    1
    41    17    12   ar
    42    22    15    1
    43     9    10    1
    44    18    23    1
