@<TRIPOS>MOLECULE
*****
 35 37 0 0 0
SMALL
GASTEIGER

@<TRIPOS>ATOM
      1 C         139.7120  142.7714  164.6058 C.ar    1  UNL1        0.0495
      2 C         140.5944  143.9790  164.7190 C.ar    1  UNL1        0.0455
      3 C         141.0742  144.6760  163.4805 C.ar    1  UNL1        0.1623
      4 F         141.9567  145.8837  163.5936 F       1  UNL1       -0.2026
      5 C         140.6716  144.1653  162.1288 C.ar    1  UNL1        0.1798
      6 C         139.7891  142.9577  162.0157 C.ar    1  UNL1        0.1623
      7 F         139.3865  142.4470  160.6639 F       1  UNL1       -0.2026
      8 C         139.3093  142.2607  163.2542 C.ar    1  UNL1        0.0455
      9 S         141.1514  144.8623  160.8902 S.O2    1  UNL1        0.0791
     10 O         139.8103  145.5168  160.7389 O.2     1  UNL1       -0.1498
     11 O         142.4925  144.2078  161.0415 O.2     1  UNL1       -0.1498
     12 N         141.6312  145.5592  159.6517 N.pl3   1  UNL1       -0.1983
     13 H         142.3205  146.2592  159.7164 H       1  UNL1        0.1753
     14 C         141.0609  145.1897  158.3145 C.ar    1  UNL1        0.1542
     15 C         140.5958  146.1486  157.2589 C.ar    1  UNL1        0.0725
     16 S         140.1029  145.3480  156.0901 S.2     1  UNL1       -0.0625
     17 C         140.2634  143.8943  156.4233 C.ar    1  UNL1        0.1360
     18 N         140.8554  143.7965  157.7980 N.ar    1  UNL1       -0.2203
     19 N         139.2322  142.0744  165.8444 N.pl3   1  UNL1       -0.3289
     20 H         138.3458  142.2866  166.2166 H       1  UNL1        0.1471
     21 C         140.1029  141.0542  166.5160 C.3     1  UNL1        0.1163
     22 C         141.7834  139.3939  165.4346 C.ar    1  UNL1       -0.0063
     23 C         142.0630  138.0846  164.7582 C.ar    1  UNL1       -0.0030
     24 C         140.9415  137.1262  164.4868 C.ar    1  UNL1        0.0020
     25 C         139.5404  137.4771  164.8917 C.ar    1  UNL1        0.0293
     26 C         139.2609  138.7864  165.5681 C.ar    1  UNL1        0.1375
     27 F         137.8599  139.1374  165.9730 F       1  UNL1       -0.2045
     28 C         140.3824  139.7448  165.8395 C.ar    1  UNL1        0.0222
     29 C         142.9049  140.3523  165.7061 C.3     1  UNL1        0.0989
     30 C         142.8764  141.2164  163.2561 C.3     1  UNL1        0.0898
     31 N         143.2532  141.4048  164.6957 N.3     1  UNL1       -0.2703
     32 C         143.9782  142.6459  165.1250 C.3     1  UNL1        0.0458
     33 C         143.4480  142.4740  166.5176 C.3     1  UNL1        0.0160
     34 C         144.5084  142.8177  163.7324 C.3     1  UNL1        0.0160
     35 C         144.7032  143.8869  165.5542 C.3     1  UNL1        0.0160
@<TRIPOS>BOND
     1    30    31    1
     2    31    29    1
     3    29    22    1
     4    22    23   ar
     5    23    24   ar
     6    24    25   ar
     7    25    26   ar
     8    26    27    1
     9    26    28   ar
    10    28    21    1
    11    21    19    1
    12    19     1    1
    13     1     2   ar
    14     2     3   ar
    15     3     4    1
    16     3     5   ar
    17     5     9    1
    18     9    10    2
    19     9    11    2
    20     9    12    1
    21    12    14    1
    22    14    15   ar
    23    15    16   ar
    24    16    17   ar
    25    17    18   ar
    26     5     6   ar
    27     6     7    1
    28     6     8   ar
    29    31    32    1
    30    32    33    1
    31    32    34    1
    32    32    35    1
    33    28    22   ar
    34     8     1   ar
    35    18    14   ar
    36    19    20    1
    37    12    13    1
@<TRIPOS>MOLECULE
*****
 35 37 0 0 0
SMALL
GASTEIGER

@<TRIPOS>ATOM
      1 C         143.2979  140.2361  163.8788 C.ar    1  UNL1        0.0495
      2 C         143.7728  141.5694  164.3756 C.ar    1  UNL1        0.0455
      3 C         143.3990  142.8210  163.6383 C.ar    1  UNL1        0.1623
      4 F         143.8739  144.1543  164.1351 F       1  UNL1       -0.2026
      5 C         142.5504  142.7393  162.4041 C.ar    1  UNL1        0.1798
      6 C         142.0756  141.4060  161.9073 C.ar    1  UNL1        0.1623
      7 F         141.2270  141.3244  160.6731 F       1  UNL1       -0.2026
      8 C         142.4494  140.1544  162.6446 C.ar    1  UNL1        0.0455
      9 S         142.1767  143.9910  161.6667 S.O2    1  UNL1        0.0791
     10 O         141.0288  144.2032  162.6087 O.2     1  UNL1       -0.1498
     11 O         143.3245  143.7788  160.7248 O.2     1  UNL1       -0.1498
     12 N         141.8029  145.2426  160.9294 N.pl3   1  UNL1       -0.1983
     13 H         141.8428  146.1137  161.3864 H       1  UNL1        0.1753
     14 C         141.3684  145.1670  159.4957 C.ar    1  UNL1        0.1542
     15 C         140.1930  144.3977  158.9700 C.ar    1  UNL1        0.0725
     16 S         140.1312  144.6027  157.4853 S.2     1  UNL1       -0.0625
     17 C         141.2685  145.4988  157.0934 C.ar    1  UNL1        0.1360
     18 N         142.0331  145.8476  158.3359 N.ar    1  UNL1       -0.2203
     19 N         143.6717  138.9844  164.6162 N.pl3   1  UNL1       -0.3289
     20 H         144.4614  138.4665  164.3381 H       1  UNL1        0.1471
     21 C         142.8423  138.5219  165.7773 C.3     1  UNL1        0.1163
     22 C         140.6612  139.7107  166.5386 C.ar    1  UNL1       -0.0063
     23 C         139.1675  139.8391  166.4916 C.ar    1  UNL1       -0.0030
     24 C         138.3611  138.9073  165.6363 C.ar    1  UNL1        0.0020
     25 C         139.0484  137.8471  164.8281 C.ar    1  UNL1        0.0293
     26 C         140.5421  137.7186  164.8750 C.ar    1  UNL1        0.1375
     27 F         141.2295  136.6583  164.0667 F       1  UNL1       -0.2045
     28 C         141.3485  138.6504  165.7303 C.ar    1  UNL1        0.0222
     29 C         141.4676  140.6425  167.3939 C.3     1  UNL1        0.0989
     30 C         142.0372  139.4463  169.6288 C.3     1  UNL1        0.0898
     31 N         141.3666  140.5653  168.8885 N.3     1  UNL1       -0.2703
     32 C         140.5949  141.6073  169.6428 C.3     1  UNL1        0.0458
     33 C         141.5696  142.6549  169.1928 C.3     1  UNL1        0.0160
     34 C         139.6203  140.5597  170.0929 C.3     1  UNL1        0.0160
     35 C         139.8233  142.6492  170.3972 C.3     1  UNL1        0.0160
@<TRIPOS>BOND
     1    30    31    1
     2    31    29    1
     3    29    22    1
     4    22    23   ar
     5    23    24   ar
     6    24    25   ar
     7    25    26   ar
     8    26    27    1
     9    26    28   ar
    10    28    21    1
    11    21    19    1
    12    19     1    1
    13     1     2   ar
    14     2     3   ar
    15     3     4    1
    16     3     5   ar
    17     5     9    1
    18     9    10    2
    19     9    11    2
    20     9    12    1
    21    12    14    1
    22    14    15   ar
    23    15    16   ar
    24    16    17   ar
    25    17    18   ar
    26     5     6   ar
    27     6     7    1
    28     6     8   ar
    29    31    32    1
    30    32    33    1
    31    32    34    1
    32    32    35    1
    33    28    22   ar
    34     8     1   ar
    35    18    14   ar
    36    19    20    1
    37    12    13    1
@<TRIPOS>MOLECULE
*****
 35 37 0 0 0
SMALL
GASTEIGER

@<TRIPOS>ATOM
      1 C         138.5293  141.5106  164.1253 C.ar    1  UNL1        0.0495
      2 C         138.9960  142.8133  164.7041 C.ar    1  UNL1        0.0455
      3 C         139.7035  143.8099  163.8345 C.ar    1  UNL1        0.1623
      4 F         140.1703  145.1126  164.4133 F       1  UNL1       -0.2026
      5 C         139.9442  143.5037  162.3859 C.ar    1  UNL1        0.1798
      6 C         139.4774  142.2010  161.8071 C.ar    1  UNL1        0.1623
      7 F         139.7182  141.8948  160.3585 F       1  UNL1       -0.2026
      8 C         138.7700  141.2045  162.6767 C.ar    1  UNL1        0.0455
      9 S         140.6517  144.5002  161.5162 S.O2    1  UNL1        0.0791
     10 O         139.3910  145.3065  161.4144 O.2     1  UNL1       -0.1498
     11 O         141.9125  143.6939  161.6180 O.2     1  UNL1       -0.1498
     12 N         141.3593  145.4967  160.6465 N.pl3   1  UNL1       -0.1983
     13 H         141.8330  146.2573  161.0543 H       1  UNL1        0.1753
     14 C         141.3451  145.3343  159.1554 C.ar    1  UNL1        0.1542
     15 C         140.3601  144.5240  158.3660 C.ar    1  UNL1        0.0725
     16 S         140.7196  144.6426  156.9146 S.2     1  UNL1       -0.0625
     17 C         141.9269  145.5263  156.8069 C.ar    1  UNL1        0.1360
     18 N         142.3135  145.9538  158.1917 N.ar    1  UNL1       -0.2203
     19 N         137.8217  140.5141  164.9950 N.pl3   1  UNL1       -0.3289
     20 H         136.8671  140.3230  164.8485 H       1  UNL1        0.1471
     21 C         138.5686  139.8088  166.0880 C.3     1  UNL1        0.1163
     22 C         141.1307  139.9994  166.4748 C.ar    1  UNL1       -0.0063
     23 C         142.5225  139.4971  166.2288 C.ar    1  UNL1       -0.0030
     24 C         142.7441  138.3020  165.3500 C.ar    1  UNL1        0.0020
     25 C         141.5740  137.6091  164.7171 C.ar    1  UNL1        0.0293
     26 C         140.1822  138.1113  164.9631 C.ar    1  UNL1        0.1375
     27 F         139.0119  137.4184  164.3302 F       1  UNL1       -0.2045
     28 C         139.9605  139.3065  165.8420 C.ar    1  UNL1        0.0222
     29 C         140.9090  141.1946  167.3537 C.3     1  UNL1        0.0989
     30 C         140.4413  139.9440  169.5825 C.3     1  UNL1        0.0898
     31 N         141.0849  141.0765  168.8387 N.3     1  UNL1       -0.2703
     32 C         141.9045  142.0910  169.5799 C.3     1  UNL1        0.0458
     33 C         140.7934  143.0892  169.4421 C.3     1  UNL1        0.0160
     34 C         143.0155  141.0927  169.7176 C.3     1  UNL1        0.0160
     35 C         142.7240  143.1053  170.3211 C.3     1  UNL1        0.0160
@<TRIPOS>BOND
     1    30    31    1
     2    31    29    1
     3    29    22    1
     4    22    23   ar
     5    23    24   ar
     6    24    25   ar
     7    25    26   ar
     8    26    27    1
     9    26    28   ar
    10    28    21    1
    11    21    19    1
    12    19     1    1
    13     1     2   ar
    14     2     3   ar
    15     3     4    1
    16     3     5   ar
    17     5     9    1
    18     9    10    2
    19     9    11    2
    20     9    12    1
    21    12    14    1
    22    14    15   ar
    23    15    16   ar
    24    16    17   ar
    25    17    18   ar
    26     5     6   ar
    27     6     7    1
    28     6     8   ar
    29    31    32    1
    30    32    33    1
    31    32    34    1
    32    32    35    1
    33    28    22   ar
    34     8     1   ar
    35    18    14   ar
    36    19    20    1
    37    12    13    1
@<TRIPOS>MOLECULE
*****
 35 37 0 0 0
SMALL
GASTEIGER

@<TRIPOS>ATOM
      1 C         138.3736  141.3784  163.7924 C.ar    1  UNL1        0.0495
      2 C         138.6660  141.1256  162.3430 C.ar    1  UNL1        0.0455
      3 C         139.4156  142.1468  161.5399 C.ar    1  UNL1        0.1623
      4 F         139.7079  141.8940  160.0905 F       1  UNL1       -0.2026
      5 C         139.8729  143.4208  162.1861 C.ar    1  UNL1        0.1798
      6 C         139.5806  143.6736  163.6355 C.ar    1  UNL1        0.1623
      7 F         140.0379  144.9478  164.2817 F       1  UNL1       -0.2026
      8 C         138.8309  142.6524  164.4386 C.ar    1  UNL1        0.0455
      9 S         140.6226  144.4422  161.3830 S.O2    1  UNL1        0.0791
     10 O         141.8812  143.6415  161.5395 O.2     1  UNL1       -0.1498
     11 O         139.3639  145.2429  161.2264 O.2     1  UNL1       -0.1498
     12 N         141.3722  145.4635  160.5798 N.pl3   1  UNL1       -0.1983
     13 H         141.8211  146.2133  161.0331 H       1  UNL1        0.1753
     14 C         141.4378  145.3423  159.0862 C.ar    1  UNL1        0.1542
     15 C         140.4004  145.8246  158.1160 C.ar    1  UNL1        0.0725
     16 S         140.8738  145.4979  156.7307 S.2     1  UNL1       -0.0625
     17 C         142.2038  144.8137  156.8446 C.ar    1  UNL1        0.1360
     18 N         142.5523  144.7175  158.3004 N.ar    1  UNL1       -0.2203
     19 N         137.6240  140.3570  164.5955 N.pl3   1  UNL1       -0.3289
     20 H         136.6988  140.1229  164.3536 H       1  UNL1        0.1471
     21 C         138.2839  139.6925  165.7672 C.3     1  UNL1        0.1163
     22 C         140.7920  139.7351  166.4436 C.ar    1  UNL1       -0.0063
     23 C         142.1827  139.1890  166.3107 C.ar    1  UNL1       -0.0030
     24 C         142.4561  138.0543  165.3685 C.ar    1  UNL1        0.0020
     25 C         141.3388  137.4656  164.5592 C.ar    1  UNL1        0.0293
     26 C         139.9481  138.0117  164.6921 C.ar    1  UNL1        0.1375
     27 F         138.8306  137.4230  163.8828 F       1  UNL1       -0.2045
     28 C         139.6747  139.1464  165.6343 C.ar    1  UNL1        0.0222
     29 C         140.5187  140.8698  167.3857 C.3     1  UNL1        0.0989
     30 C         142.0662  142.6074  166.2299 C.3     1  UNL1        0.0898
     31 N         141.4815  142.0163  167.4784 N.3     1  UNL1       -0.2703
     32 C         141.8596  142.5716  168.8196 C.3     1  UNL1        0.0458
     33 C         140.4280  142.9435  169.0692 C.3     1  UNL1        0.0160
     34 C         143.2911  142.1998  168.5699 C.3     1  UNL1        0.0160
     35 C         142.2377  143.1270  170.1607 C.3     1  UNL1        0.0160
@<TRIPOS>BOND
     1    30    31    1
     2    31    29    1
     3    29    22    1
     4    22    23   ar
     5    23    24   ar
     6    24    25   ar
     7    25    26   ar
     8    26    27    1
     9    26    28   ar
    10    28    21    1
    11    21    19    1
    12    19     1    1
    13     1     2   ar
    14     2     3   ar
    15     3     4    1
    16     3     5   ar
    17     5     9    1
    18     9    10    2
    19     9    11    2
    20     9    12    1
    21    12    14    1
    22    14    15   ar
    23    15    16   ar
    24    16    17   ar
    25    17    18   ar
    26     5     6   ar
    27     6     7    1
    28     6     8   ar
    29    31    32    1
    30    32    33    1
    31    32    34    1
    32    32    35    1
    33    28    22   ar
    34     8     1   ar
    35    18    14   ar
    36    19    20    1
    37    12    13    1
@<TRIPOS>MOLECULE
*****
 35 37 0 0 0
SMALL
GASTEIGER

@<TRIPOS>ATOM
      1 C         141.3021  142.8479  165.3526 C.ar    1  UNL1        0.0495
      2 C         139.8892  143.3233  165.1864 C.ar    1  UNL1        0.0455
      3 C         139.4743  144.0147  163.9216 C.ar    1  UNL1        0.1623
      4 F         138.0614  144.4901  163.7555 F       1  UNL1       -0.2026
      5 C         140.4724  144.2307  162.8229 C.ar    1  UNL1        0.1798
      6 C         141.8854  143.7553  162.9891 C.ar    1  UNL1        0.1623
      7 F         142.8835  143.9713  161.8903 F       1  UNL1       -0.2026
      8 C         142.3002  143.0639  164.2539 C.ar    1  UNL1        0.0455
      9 S         140.0576  144.9221  161.5580 S.O2    1  UNL1        0.0791
     10 O         139.7891  143.5919  160.9189 O.2     1  UNL1       -0.1498
     11 O         140.3261  146.2523  162.1971 O.2     1  UNL1       -0.1498
     12 N         139.6428  145.6135  160.2932 N.pl3   1  UNL1       -0.1983
     13 H         138.8229  146.1582  160.2761 H       1  UNL1        0.1753
     14 C         140.4773  145.4752  159.0545 C.ar    1  UNL1        0.1542
     15 C         139.9635  145.4279  157.6460 C.ar    1  UNL1        0.0725
     16 S         141.1408  145.2833  156.7277 S.2     1  UNL1       -0.0625
     17 C         142.3821  145.2412  157.5687 C.ar    1  UNL1        0.1360
     18 N         141.9721  145.3598  159.0067 N.ar    1  UNL1       -0.2203
     19 N         141.7170  142.1565  166.6175 N.pl3   1  UNL1       -0.3289
     20 H         141.6940  142.6415  167.4739 H       1  UNL1        0.1471
     21 C         142.1667  140.7261  166.5775 C.3     1  UNL1        0.1163
     22 C         141.8254  138.6556  165.0456 C.ar    1  UNL1       -0.0063
     23 C         140.9282  137.6033  164.4647 C.ar    1  UNL1       -0.0030
     24 C         139.4750  137.5690  164.8347 C.ar    1  UNL1        0.0020
     25 C         138.9190  138.5871  165.7857 C.ar    1  UNL1        0.0293
     26 C         139.8162  139.6394  166.3666 C.ar    1  UNL1        0.1375
     27 F         139.2602  140.6575  167.3176 F       1  UNL1       -0.2045
     28 C         141.2695  139.6737  165.9966 C.ar    1  UNL1        0.0222
     29 C         143.2787  138.6899  164.6756 C.3     1  UNL1        0.0989
     30 C         143.3198  138.1397  162.1368 C.3     1  UNL1        0.0898
     31 N         143.6882  139.0428  163.2764 N.3     1  UNL1       -0.2703
     32 C         144.4662  140.2987  163.0168 C.3     1  UNL1        0.0458
     33 C         145.1859  140.1226  164.3210 C.3     1  UNL1        0.0160
     34 C         143.7465  140.4749  161.7126 C.3     1  UNL1        0.0160
     35 C         145.2441  141.5547  162.7572 C.3     1  UNL1        0.0160
@<TRIPOS>BOND
     1    30    31    1
     2    31    29    1
     3    29    22    1
     4    22    23   ar
     5    23    24   ar
     6    24    25   ar
     7    25    26   ar
     8    26    27    1
     9    26    28   ar
    10    28    21    1
    11    21    19    1
    12    19     1    1
    13     1     2   ar
    14     2     3   ar
    15     3     4    1
    16     3     5   ar
    17     5     9    1
    18     9    10    2
    19     9    11    2
    20     9    12    1
    21    12    14    1
    22    14    15   ar
    23    15    16   ar
    24    16    17   ar
    25    17    18   ar
    26     5     6   ar
    27     6     7    1
    28     6     8   ar
    29    31    32    1
    30    32    33    1
    31    32    34    1
    32    32    35    1
    33    28    22   ar
    34     8     1   ar
    35    18    14   ar
    36    19    20    1
    37    12    13    1
@<TRIPOS>MOLECULE
*****
 35 37 0 0 0
SMALL
GASTEIGER

@<TRIPOS>ATOM
      1 C         139.9601  143.2104  165.2845 C.ar    1  UNL1        0.0495
      2 C         138.6254  143.5626  164.6974 C.ar    1  UNL1        0.0455
      3 C         138.5506  144.2891  163.3873 C.ar    1  UNL1        0.1623
      4 F         137.2159  144.6414  162.8001 F       1  UNL1       -0.2026
      5 C         139.8104  144.6634  162.6642 C.ar    1  UNL1        0.1798
      6 C         141.1450  144.3112  163.2513 C.ar    1  UNL1        0.1623
      7 F         142.4048  144.6855  162.5282 F       1  UNL1       -0.2026
      8 C         141.2198  143.5847  164.5615 C.ar    1  UNL1        0.0455
      9 S         139.7355  145.3900  161.3540 S.O2    1  UNL1        0.0791
     10 O         140.0986  146.6715  162.0438 O.2     1  UNL1       -0.1498
     11 O         139.3725  144.1085  160.6642 O.2     1  UNL1       -0.1498
     12 N         139.6607  146.1164  160.0438 N.pl3   1  UNL1       -0.1983
     13 H         139.0302  146.8640  159.9308 H       1  UNL1        0.1753
     14 C         140.5467  145.7039  158.9059 C.ar    1  UNL1        0.1542
     15 C         140.2078  145.7935  157.4474 C.ar    1  UNL1        0.0725
     16 S         141.3787  145.2744  156.6667 S.2     1  UNL1       -0.0625
     17 C         142.4412  144.8639  157.6427 C.ar    1  UNL1        0.1360
     18 N         141.9270  145.1294  159.0265 N.ar    1  UNL1       -0.2203
     19 N         140.0349  142.4838  166.5947 N.pl3   1  UNL1       -0.3289
     20 H         140.1561  142.9886  167.4313 H       1  UNL1        0.1471
     21 C         139.9249  140.9883  166.6304 C.3     1  UNL1        0.1163
     22 C         141.7308  139.6061  167.8867 C.ar    1  UNL1       -0.0063
     23 C         142.9706  138.7622  167.8624 C.ar    1  UNL1       -0.0030
     24 C         143.6444  138.4565  166.5576 C.ar    1  UNL1        0.0020
     25 C         143.0784  138.9948  165.2770 C.ar    1  UNL1        0.0293
     26 C         141.8386  139.8387  165.3013 C.ar    1  UNL1        0.1375
     27 F         141.2725  140.3771  164.0207 F       1  UNL1       -0.2045
     28 C         141.1648  140.1444  166.6061 C.ar    1  UNL1        0.0222
     29 C         141.0570  139.9117  169.1915 C.3     1  UNL1        0.0989
     30 C         142.6772  140.6677  171.0766 C.3     1  UNL1        0.0898
     31 N         141.6010  140.9890  170.0823 N.3     1  UNL1       -0.2703
     32 C         141.0688  142.3877  169.9788 C.3     1  UNL1        0.0458
     33 C         139.6768  141.8744  170.1995 C.3     1  UNL1        0.0160
     34 C         142.4609  142.9009  169.7580 C.3     1  UNL1        0.0160
     35 C         140.5367  143.7863  169.8752 C.3     1  UNL1        0.0160
@<TRIPOS>BOND
     1    30    31    1
     2    31    29    1
     3    29    22    1
     4    22    23   ar
     5    23    24   ar
     6    24    25   ar
     7    25    26   ar
     8    26    27    1
     9    26    28   ar
    10    28    21    1
    11    21    19    1
    12    19     1    1
    13     1     2   ar
    14     2     3   ar
    15     3     4    1
    16     3     5   ar
    17     5     9    1
    18     9    10    2
    19     9    11    2
    20     9    12    1
    21    12    14    1
    22    14    15   ar
    23    15    16   ar
    24    16    17   ar
    25    17    18   ar
    26     5     6   ar
    27     6     7    1
    28     6     8   ar
    29    31    32    1
    30    32    33    1
    31    32    34    1
    32    32    35    1
    33    28    22   ar
    34     8     1   ar
    35    18    14   ar
    36    19    20    1
    37    12    13    1
@<TRIPOS>MOLECULE
*****
 35 37 0 0 0
SMALL
GASTEIGER

@<TRIPOS>ATOM
      1 C         139.7492  142.8215  164.6223 C.ar    1  UNL1        0.0495
      2 C         139.2831  142.3619  163.2727 C.ar    1  UNL1        0.0455
      3 C         139.7088  143.1025  162.0398 C.ar    1  UNL1        0.1623
      4 F         139.2427  142.6429  160.6902 F       1  UNL1       -0.2026
      5 C         140.6008  144.3028  162.1565 C.ar    1  UNL1        0.1798
      6 C         141.0670  144.7625  163.5061 C.ar    1  UNL1        0.1623
      7 F         141.9589  145.9628  163.6228 F       1  UNL1       -0.2026
      8 C         140.6412  144.0218  164.7390 C.ar    1  UNL1        0.0455
      9 S         141.0266  145.0436  160.9236 S.O2    1  UNL1        0.0791
     10 O         142.3413  144.3218  160.9439 O.2     1  UNL1       -0.1498
     11 O         139.7119  145.7654  160.9032 O.2     1  UNL1       -0.1498
     12 N         141.4524  145.7843  159.6907 N.pl3   1  UNL1       -0.1983
     13 H         141.8388  146.6866  159.7673 H       1  UNL1        0.1753
     14 C         141.2895  145.1504  158.3410 C.ar    1  UNL1        0.1542
     15 C         142.1513  145.4012  157.1393 C.ar    1  UNL1        0.0725
     16 S         141.6306  144.5601  156.0117 S.2     1  UNL1       -0.0625
     17 C         140.4469  143.7895  156.5165 C.ar    1  UNL1        0.1360
     18 N         140.2361  144.1543  157.9562 N.ar    1  UNL1       -0.2203
     19 N         139.3234  142.0808  165.8552 N.pl3   1  UNL1       -0.3289
     20 H         138.4455  142.2643  166.2612 H       1  UNL1        0.1471
     21 C         140.2352  141.0604  166.4696 C.3     1  UNL1        0.1163
     22 C         141.8138  139.2028  165.5709 C.ar    1  UNL1       -0.0063
     23 C         142.0076  137.8727  164.9052 C.ar    1  UNL1       -0.0030
     24 C         140.8167  137.0700  164.4724 C.ar    1  UNL1        0.0020
     25 C         139.4320  137.5974  164.7053 C.ar    1  UNL1        0.0293
     26 C         139.2381  138.9275  165.3710 C.ar    1  UNL1        0.1375
     27 F         137.8533  139.4550  165.6039 F       1  UNL1       -0.2045
     28 C         140.4291  139.7302  165.8038 C.ar    1  UNL1        0.0222
     29 C         143.0047  140.0056  166.0038 C.3     1  UNL1        0.0989
     30 C         143.7544  142.4499  165.5419 C.3     1  UNL1        0.0898
     31 N         143.5932  141.0315  165.0812 N.3     1  UNL1       -0.2703
     32 C         144.0204  140.6391  163.6979 C.3     1  UNL1        0.0458
     33 C         142.9344  141.4966  163.1191 C.3     1  UNL1        0.0160
     34 C         145.1065  139.7815  164.2766 C.3     1  UNL1        0.0160
     35 C         144.4477  140.2467  162.3146 C.3     1  UNL1        0.0160
@<TRIPOS>BOND
     1    30    31    1
     2    31    29    1
     3    29    22    1
     4    22    23   ar
     5    23    24   ar
     6    24    25   ar
     7    25    26   ar
     8    26    27    1
     9    26    28   ar
    10    28    21    1
    11    21    19    1
    12    19     1    1
    13     1     2   ar
    14     2     3   ar
    15     3     4    1
    16     3     5   ar
    17     5     9    1
    18     9    10    2
    19     9    11    2
    20     9    12    1
    21    12    14    1
    22    14    15   ar
    23    15    16   ar
    24    16    17   ar
    25    17    18   ar
    26     5     6   ar
    27     6     7    1
    28     6     8   ar
    29    31    32    1
    30    32    33    1
    31    32    34    1
    32    32    35    1
    33    28    22   ar
    34     8     1   ar
    35    18    14   ar
    36    19    20    1
    37    12    13    1
@<TRIPOS>MOLECULE
*****
 35 37 0 0 0
SMALL
GASTEIGER

@<TRIPOS>ATOM
      1 C         143.2252  140.8419  164.3217 C.ar    1  UNL1        0.0495
      2 C         142.4489  140.5980  163.0617 C.ar    1  UNL1        0.0455
      3 C         142.0445  141.7531  162.1944 C.ar    1  UNL1        0.1623
      4 F         141.2682  141.5093  160.9344 F       1  UNL1       -0.2026
      5 C         142.4165  143.1521  162.5872 C.ar    1  UNL1        0.1798
      6 C         143.1929  143.3960  163.8473 C.ar    1  UNL1        0.1623
      7 F         143.5649  144.7951  164.2401 F       1  UNL1       -0.2026
      8 C         143.5972  142.2409  164.7146 C.ar    1  UNL1        0.0455
      9 S         142.0122  144.3073  161.7200 S.O2    1  UNL1        0.0791
     10 O         143.1946  144.0548  160.8323 O.2     1  UNL1       -0.1498
     11 O         140.8298  144.5599  162.6077 O.2     1  UNL1       -0.1498
     12 N         141.6078  145.4625  160.8528 N.pl3   1  UNL1       -0.1983
     13 H         141.5200  146.3627  161.2415 H       1  UNL1        0.1753
     14 C         141.3373  145.2461  159.3933 C.ar    1  UNL1        0.1542
     15 C         140.2567  144.3809  158.8157 C.ar    1  UNL1        0.0725
     16 S         140.3515  144.4570  157.3206 S.2     1  UNL1       -0.0625
     17 C         141.4907  145.3692  156.9742 C.ar    1  UNL1        0.1360
     18 N         142.1000  145.8568  158.2552 N.ar    1  UNL1       -0.2203
     19 N         143.6296  139.6867  165.1890 N.pl3   1  UNL1       -0.3289
     20 H         144.5156  139.2726  165.0758 H       1  UNL1        0.1471
     21 C         142.6840  139.1624  166.2287 C.3     1  UNL1        0.1163
     22 C         140.3111  140.1933  166.4663 C.ar    1  UNL1       -0.0063
     23 C         138.8387  140.1430  166.1840 C.ar    1  UNL1       -0.0030
     24 C         138.2670  139.0118  165.3819 C.ar    1  UNL1        0.0020
     25 C         139.1676  137.9307  164.8620 C.ar    1  UNL1        0.0293
     26 C         140.6399  137.9810  165.1443 C.ar    1  UNL1        0.1375
     27 F         141.5406  136.8999  164.6245 F       1  UNL1       -0.2045
     28 C         141.2116  139.1122  165.9464 C.ar    1  UNL1        0.0222
     29 C         140.8828  141.3245  167.2684 C.3     1  UNL1        0.0989
     30 C         140.1896  140.1594  169.4847 C.3     1  UNL1        0.0898
     31 N         140.9729  141.2147  168.7616 N.3     1  UNL1       -0.2703
     32 C         141.8465  142.1600  169.5318 C.3     1  UNL1        0.0458
     33 C         142.9958  141.2051  169.4006 C.3     1  UNL1        0.0160
     34 C         140.6973  143.1150  169.6630 C.3     1  UNL1        0.0160
     35 C         142.7200  143.1054  170.3020 C.3     1  UNL1        0.0160
@<TRIPOS>BOND
     1    30    31    1
     2    31    29    1
     3    29    22    1
     4    22    23   ar
     5    23    24   ar
     6    24    25   ar
     7    25    26   ar
     8    26    27    1
     9    26    28   ar
    10    28    21    1
    11    21    19    1
    12    19     1    1
    13     1     2   ar
    14     2     3   ar
    15     3     4    1
    16     3     5   ar
    17     5     9    1
    18     9    10    2
    19     9    11    2
    20     9    12    1
    21    12    14    1
    22    14    15   ar
    23    15    16   ar
    24    16    17   ar
    25    17    18   ar
    26     5     6   ar
    27     6     7    1
    28     6     8   ar
    29    31    32    1
    30    32    33    1
    31    32    34    1
    32    32    35    1
    33    28    22   ar
    34     8     1   ar
    35    18    14   ar
    36    19    20    1
    37    12    13    1
@<TRIPOS>MOLECULE
*****
 35 37 0 0 0
SMALL
GASTEIGER

@<TRIPOS>ATOM
      1 C         141.9353  142.5709  165.4618 C.ar    1  UNL1        0.0495
      2 C         143.0538  143.4587  165.0028 C.ar    1  UNL1        0.0455
      3 C         142.9522  144.1743  163.6884 C.ar    1  UNL1        0.1623
      4 F         144.0707  145.0621  163.2294 F       1  UNL1       -0.2026
      5 C         141.7321  144.0021  162.8331 C.ar    1  UNL1        0.1798
      6 C         140.6136  143.1143  163.2921 C.ar    1  UNL1        0.1623
      7 F         139.3935  142.9421  162.4367 F       1  UNL1       -0.2026
      8 C         140.7152  142.3986  164.6065 C.ar    1  UNL1        0.0455
      9 S         141.6305  144.7177  161.5187 S.O2    1  UNL1        0.0791
     10 O         140.7240  145.7365  162.1434 O.2     1  UNL1       -0.1498
     11 O         142.5370  143.6989  160.8940 O.2     1  UNL1       -0.1498
     12 N         141.5289  145.4333  160.2043 N.pl3   1  UNL1       -0.1983
     13 H         141.9297  146.3261  160.0977 H       1  UNL1        0.1753
     14 C         140.8166  144.7885  159.0524 C.ar    1  UNL1        0.1542
     15 C         141.2160  144.8745  157.6091 C.ar    1  UNL1        0.0725
     16 S         140.2261  144.0836  156.8063 S.2     1  UNL1       -0.0625
     17 C         139.2149  143.5088  157.7533 C.ar    1  UNL1        0.1360
     18 N         139.5798  143.9444  159.1415 N.ar    1  UNL1       -0.2203
     19 N         142.0369  141.8552  166.7762 N.pl3   1  UNL1       -0.3289
     20 H         142.0118  142.3655  167.6178 H       1  UNL1        0.1471
     21 C         142.1769  140.3622  166.8084 C.3     1  UNL1        0.1163
     22 C         141.3776  138.4434  165.2497 C.ar    1  UNL1       -0.0063
     23 C         140.2759  137.5753  164.7181 C.ar    1  UNL1       -0.0030
     24 C         138.8719  137.7576  165.2136 C.ar    1  UNL1        0.0020
     25 C         138.5695  138.8082  166.2406 C.ar    1  UNL1        0.0293
     26 C         139.6712  139.6763  166.7722 C.ar    1  UNL1        0.1375
     27 F         139.3689  140.7269  167.7993 F       1  UNL1       -0.2045
     28 C         141.0752  139.4939  166.2767 C.ar    1  UNL1        0.0222
     29 C         142.7816  138.2610  164.7542 C.3     1  UNL1        0.0989
     30 C         142.6228  138.3692  162.1633 C.3     1  UNL1        0.0898
     31 N         143.2027  138.8736  163.4514 N.3     1  UNL1       -0.2703
     32 C         144.2037  139.9907  163.4367 C.3     1  UNL1        0.0458
     33 C         143.4377  140.6627  162.3360 C.3     1  UNL1        0.0160
     34 C         144.9697  139.3188  164.5375 C.3     1  UNL1        0.0160
     35 C         145.2046  141.1078  163.4221 C.3     1  UNL1        0.0160
@<TRIPOS>BOND
     1    30    31    1
     2    31    29    1
     3    29    22    1
     4    22    23   ar
     5    23    24   ar
     6    24    25   ar
     7    25    26   ar
     8    26    27    1
     9    26    28   ar
    10    28    21    1
    11    21    19    1
    12    19     1    1
    13     1     2   ar
    14     2     3   ar
    15     3     4    1
    16     3     5   ar
    17     5     9    1
    18     9    10    2
    19     9    11    2
    20     9    12    1
    21    12    14    1
    22    14    15   ar
    23    15    16   ar
    24    16    17   ar
    25    17    18   ar
    26     5     6   ar
    27     6     7    1
    28     6     8   ar
    29    31    32    1
    30    32    33    1
    31    32    34    1
    32    32    35    1
    33    28    22   ar
    34     8     1   ar
    35    18    14   ar
    36    19    20    1
    37    12    13    1
