@<TRIPOS>MOLECULE
*****
 38 41 0 0 0
SMALL
GASTEIGER

@<TRIPOS>ATOM
      1 N         140.9341  144.5075  158.7788 N.am    1  UNL1       -0.2794
      2 C         140.6384  145.0522  160.1447 C.2     1  UNL1        0.2495
      3 O         139.4713  145.9721  160.3488 O.2     1  UNL1       -0.2698
      4 H         141.7001  143.9037  158.6449 H       1  UNL1        0.1552
      5 N         139.2094  142.4335  157.4659 N.pl3   1  UNL1       -0.3560
      6 C         139.2004  143.8457  156.9604 C.ar    1  UNL1        0.0552
      7 C         138.3291  144.2210  155.7986 C.ar    1  UNL1        0.0153
      8 C         138.3202  145.6332  155.2931 C.ar    1  UNL1        0.0013
      9 C         139.1825  146.6702  155.9496 C.ar    1  UNL1        0.0013
     10 C         140.0538  146.2950  157.1115 C.ar    1  UNL1        0.0159
     11 C         140.0627  144.8827  157.6169 C.ar    1  UNL1        0.0636
     12 H         138.6434  141.7528  157.0350 H       1  UNL1        0.1424
     13 H         139.7813  142.1872  158.2284 H       1  UNL1        0.1424
     14 C         139.1735  148.0825  155.4442 C.ar    1  UNL1        0.0000
     15 C         139.8130  148.4121  154.1280 C.ar    1  UNL1        0.0000
     16 C         139.8040  149.8244  153.6226 C.ar    1  UNL1        0.0000
     17 C         139.1556  150.9070  154.4333 C.ar    1  UNL1        0.0000
     18 C         138.5161  150.5774  155.7495 C.ar    1  UNL1        0.0000
     19 C         138.5251  149.1651  156.2549 C.ar    1  UNL1        0.0000
     20 C         141.5097  144.6770  161.3067 C.ar    1  UNL1        0.0537
     21 C         142.6936  143.7800  161.0974 C.ar    1  UNL1        0.0042
     22 C         143.5650  143.4047  162.2592 C.ar    1  UNL1       -0.0025
     23 C         143.2524  143.9265  163.6303 C.ar    1  UNL1       -0.0025
     24 C         142.0685  144.8235  163.8396 C.ar    1  UNL1       -0.0025
     25 C         141.1972  145.1988  162.6778 C.ar    1  UNL1        0.0042
     26 C         144.1238  143.5513  164.7923 C.3     1  UNL1        0.1194
     27 N         143.5573  142.7494  165.9263 N.am    1  UNL1       -0.2665
     28 C         143.2856  141.2851  165.7473 C.2     1  UNL1        0.4022
     29 O         143.5804  140.6228  164.4342 O.2     1  UNL1       -0.2264
     30 H         143.3639  143.1842  166.7882 H       1  UNL1        0.1531
     31 O         142.7192  140.4833  166.8813 O.3     1  UNL1       -0.4296
     32 C         141.2464  140.5199  167.1636 C.3     1  UNL1        0.2382
     33 C         140.7268  141.2965  168.3370 C.ar    1  UNL1        0.0405
     34 C         140.8962  142.7861  168.3849 C.ar    1  UNL1        0.0025
     35 C         140.3766  143.5627  169.5583 C.ar    1  UNL1        0.0205
     36 C         139.6874  142.8498  170.6837 C.ar    1  UNL1        0.0989
     37 N         139.5179  141.3601  170.6359 N.ar    1  UNL1       -0.2425
     38 C         140.0376  140.5835  169.4625 C.ar    1  UNL1        0.0982
@<TRIPOS>BOND
     1     5     6    1
     2     6     7   ar
     3     7     8   ar
     4     8     9   ar
     5     9    14    1
     6    14    15   ar
     7    15    16   ar
     8    16    17   ar
     9    17    18   ar
    10    18    19   ar
    11     9    10   ar
    12    10    11   ar
    13    11     1    1
    14     1     2   am
    15     2     3    2
    16     2    20    1
    17    20    21   ar
    18    21    22   ar
    19    22    23   ar
    20    23    26    1
    21    26    27    1
    22    27    28   am
    23    28    29    2
    24    28    31    1
    25    31    32    1
    26    32    33    1
    27    33    34   ar
    28    34    35   ar
    29    35    36   ar
    30    36    37   ar
    31    37    38   ar
    32    23    24   ar
    33    24    25   ar
    34    11     6   ar
    35    25    20   ar
    36    19    14   ar
    37    38    33   ar
    38     5    12    1
    39     5    13    1
    40     1     4    1
    41    27    30    1
@<TRIPOS>MOLECULE
*****
 38 41 0 0 0
SMALL
GASTEIGER

@<TRIPOS>ATOM
      1 N         141.6786  138.0511  158.3203 N.am    1  UNL1       -0.2794
      2 C         142.2621  138.6106  159.5838 C.2     1  UNL1        0.2495
      3 O         143.7335  138.4887  159.8486 O.2     1  UNL1       -0.2698
      4 H         140.7129  138.1311  158.1465 H       1  UNL1        0.1552
      5 N         143.0300  139.6545  156.1748 N.pl3   1  UNL1       -0.3560
      6 C         143.2422  138.1714  156.2489 C.ar    1  UNL1        0.0552
      7 C         144.1300  137.4900  155.2502 C.ar    1  UNL1        0.0153
      8 C         144.3421  136.0069  155.3242 C.ar    1  UNL1        0.0013
      9 C         143.6664  135.2052  156.3969 C.ar    1  UNL1        0.0013
     10 C         142.7786  135.8866  157.3956 C.ar    1  UNL1        0.0159
     11 C         142.5665  137.3697  157.3216 C.ar    1  UNL1        0.0636
     12 H         143.4735  140.1806  155.4708 H       1  UNL1        0.1424
     13 H         142.4473  140.1017  156.8303 H       1  UNL1        0.1424
     14 C         143.8786  133.7222  156.4709 C.ar    1  UNL1        0.0000
     15 C         143.4177  132.8416  155.3475 C.ar    1  UNL1        0.0000
     16 C         143.6299  131.3585  155.4215 C.ar    1  UNL1        0.0000
     17 C         144.3029  130.7560  156.6189 C.ar    1  UNL1        0.0000
     18 C         144.7638  131.6365  157.7424 C.ar    1  UNL1        0.0000
     19 C         144.5516  133.1196  157.6684 C.ar    1  UNL1        0.0000
     20 C         141.3742  139.2920  160.5825 C.ar    1  UNL1        0.0537
     21 C         140.0237  138.7206  160.8982 C.ar    1  UNL1        0.0042
     22 C         139.1359  139.4019  161.8969 C.ar    1  UNL1       -0.0025
     23 C         139.5985  140.6546  162.5799 C.ar    1  UNL1       -0.0025
     24 C         140.9490  141.2260  162.2643 C.ar    1  UNL1       -0.0025
     25 C         141.8369  140.5447  161.2656 C.ar    1  UNL1        0.0042
     26 C         138.7106  141.3360  163.5787 C.3     1  UNL1        0.1194
     27 N         138.6910  142.8334  163.6661 N.am    1  UNL1       -0.2665
     28 C         138.1991  143.6460  162.5053 C.2     1  UNL1        0.4022
     29 O         137.7269  142.9613  161.2570 O.2     1  UNL1       -0.2264
     30 H         139.0010  143.2827  164.4854 H       1  UNL1        0.1531
     31 O         138.1795  145.1433  162.5927 O.3     1  UNL1       -0.4296
     32 C         139.3792  145.9354  162.1647 C.3     1  UNL1        0.2382
     33 C         140.7475  145.3257  162.2433 C.ar    1  UNL1        0.0405
     34 C         141.4671  145.2648  163.5579 C.ar    1  UNL1        0.0025
     35 C         142.8353  144.6551  163.6365 C.ar    1  UNL1        0.0205
     36 C         143.4840  144.1063  162.4004 C.ar    1  UNL1        0.0989
     37 N         142.7643  144.1671  161.0856 N.ar    1  UNL1       -0.2425
     38 C         141.3961  144.7768  161.0070 C.ar    1  UNL1        0.0982
@<TRIPOS>BOND
     1     5     6    1
     2     6     7   ar
     3     7     8   ar
     4     8     9   ar
     5     9    14    1
     6    14    15   ar
     7    15    16   ar
     8    16    17   ar
     9    17    18   ar
    10    18    19   ar
    11     9    10   ar
    12    10    11   ar
    13    11     1    1
    14     1     2   am
    15     2     3    2
    16     2    20    1
    17    20    21   ar
    18    21    22   ar
    19    22    23   ar
    20    23    26    1
    21    26    27    1
    22    27    28   am
    23    28    29    2
    24    28    31    1
    25    31    32    1
    26    32    33    1
    27    33    34   ar
    28    34    35   ar
    29    35    36   ar
    30    36    37   ar
    31    37    38   ar
    32    23    24   ar
    33    24    25   ar
    34    11     6   ar
    35    25    20   ar
    36    19    14   ar
    37    38    33   ar
    38     5    12    1
    39     5    13    1
    40     1     4    1
    41    27    30    1
@<TRIPOS>MOLECULE
*****
 38 41 0 0 0
SMALL
GASTEIGER

@<TRIPOS>ATOM
      1 N         140.8928  144.5258  158.5899 N.am    1  UNL1       -0.2794
      2 C         140.6297  145.0428  159.9731 C.2     1  UNL1        0.2495
      3 O         139.4852  145.9810  160.2181 O.2     1  UNL1       -0.2698
      4 H         141.6439  143.9101  158.4291 H       1  UNL1        0.1552
      5 N         139.1072  142.5192  157.2535 N.pl3   1  UNL1       -0.3560
      6 C         139.1185  143.9436  156.7834 C.ar    1  UNL1        0.0552
      7 C         138.2371  144.3647  155.6451 C.ar    1  UNL1        0.0153
      8 C         138.2484  145.7891  155.1750 C.ar    1  UNL1        0.0013
      9 C         139.1411  146.7924  155.8431 C.ar    1  UNL1        0.0013
     10 C         140.0226  146.3713  156.9814 C.ar    1  UNL1        0.0159
     11 C         140.0113  144.9469  157.4515 C.ar    1  UNL1        0.0636
     12 H         138.5213  141.8608  156.8150 H       1  UNL1        0.1424
     13 H         139.6858  142.2429  158.0006 H       1  UNL1        0.1424
     14 C         139.1524  148.2167  155.3730 C.ar    1  UNL1        0.0000
     15 C         139.8125  148.5726  154.0739 C.ar    1  UNL1        0.0000
     16 C         139.8238  149.9969  153.6038 C.ar    1  UNL1        0.0000
     17 C         139.1750  151.0655  154.4327 C.ar    1  UNL1        0.0000
     18 C         138.5150  150.7097  155.7318 C.ar    1  UNL1        0.0000
     19 C         138.5037  149.2853  156.2020 C.ar    1  UNL1        0.0000
     20 C         141.5112  144.6217  161.1114 C.ar    1  UNL1        0.0537
     21 C         142.6512  143.6778  160.8678 C.ar    1  UNL1        0.0042
     22 C         143.5327  143.2567  162.0060 C.ar    1  UNL1       -0.0025
     23 C         143.2742  143.7795  163.3879 C.ar    1  UNL1       -0.0025
     24 C         142.1342  144.7235  163.6316 C.ar    1  UNL1       -0.0025
     25 C         141.2527  145.1446  162.4934 C.ar    1  UNL1        0.0042
     26 C         144.1557  143.3585  164.5262 C.3     1  UNL1        0.1194
     27 N         144.2107  141.9174  164.9389 N.am    1  UNL1       -0.2665
     28 C         143.1215  141.3398  165.7933 C.2     1  UNL1        0.4022
     29 O         141.9774  142.2033  166.2351 O.2     1  UNL1       -0.2264
     30 H         144.9616  141.3506  164.6489 H       1  UNL1        0.1531
     31 O         143.1765  139.8987  166.2059 O.3     1  UNL1       -0.4296
     32 C         143.1992  138.8204  165.1634 C.3     1  UNL1        0.2382
     33 C         141.9273  138.4069  164.4843 C.ar    1  UNL1        0.0405
     34 C         140.6149  138.5551  165.1954 C.ar    1  UNL1        0.0025
     35 C         139.3430  138.1416  164.5162 C.ar    1  UNL1        0.0205
     36 C         139.3835  137.5800  163.1259 C.ar    1  UNL1        0.0989
     37 N         140.6959  137.4318  162.4148 N.ar    1  UNL1       -0.2425
     38 C         141.9678  137.8453  163.0939 C.ar    1  UNL1        0.0982
@<TRIPOS>BOND
     1     5     6    1
     2     6     7   ar
     3     7     8   ar
     4     8     9   ar
     5     9    14    1
     6    14    15   ar
     7    15    16   ar
     8    16    17   ar
     9    17    18   ar
    10    18    19   ar
    11     9    10   ar
    12    10    11   ar
    13    11     1    1
    14     1     2   am
    15     2     3    2
    16     2    20    1
    17    20    21   ar
    18    21    22   ar
    19    22    23   ar
    20    23    26    1
    21    26    27    1
    22    27    28   am
    23    28    29    2
    24    28    31    1
    25    31    32    1
    26    32    33    1
    27    33    34   ar
    28    34    35   ar
    29    35    36   ar
    30    36    37   ar
    31    37    38   ar
    32    23    24   ar
    33    24    25   ar
    34    11     6   ar
    35    25    20   ar
    36    19    14   ar
    37    38    33   ar
    38     5    12    1
    39     5    13    1
    40     1     4    1
    41    27    30    1
@<TRIPOS>MOLECULE
*****
 38 41 0 0 0
SMALL
GASTEIGER

@<TRIPOS>ATOM
      1 N         141.0194  144.4771  158.5698 N.am    1  UNL1       -0.2794
      2 C         140.7610  144.9385  159.9735 C.2     1  UNL1        0.2495
      3 O         139.5827  145.8185  160.2688 O.2     1  UNL1       -0.2698
      4 H         141.7928  143.8995  158.3760 H       1  UNL1        0.1552
      5 N         139.1764  142.4718  157.3120 N.pl3   1  UNL1       -0.3560
      6 C         139.1780  143.8931  156.8325 C.ar    1  UNL1        0.0552
      7 C         138.2581  144.3117  155.7241 C.ar    1  UNL1        0.0153
      8 C         138.2598  145.7330  155.2446 C.ar    1  UNL1        0.0013
      9 C         139.1813  146.7357  155.8735 C.ar    1  UNL1        0.0013
     10 C         140.1011  146.3170  156.9819 C.ar    1  UNL1        0.0159
     11 C         140.0995  144.8957  157.4614 C.ar    1  UNL1        0.0636
     12 H         138.5715  141.8137  156.8993 H       1  UNL1        0.1424
     13 H         139.7801  142.1970  158.0395 H       1  UNL1        0.1424
     14 C         139.1829  148.1570  155.3940 C.ar    1  UNL1        0.0000
     15 C         138.5373  149.2285  156.2216 C.ar    1  UNL1        0.0000
     16 C         138.5389  150.6498  155.7421 C.ar    1  UNL1        0.0000
     17 C         139.1861  150.9995  154.4350 C.ar    1  UNL1        0.0000
     18 C         139.8317  149.9280  153.6073 C.ar    1  UNL1        0.0000
     19 C         139.8301  148.5068  154.0868 C.ar    1  UNL1        0.0000
     20 C         141.6810  144.5199  161.0819 C.ar    1  UNL1        0.0537
     21 C         141.4649  145.0395  162.4724 C.ar    1  UNL1        0.0042
     22 C         142.3848  144.6209  163.5808 C.ar    1  UNL1       -0.0025
     23 C         143.5207  143.6827  163.2987 C.ar    1  UNL1       -0.0025
     24 C         143.7367  143.1631  161.9083 C.ar    1  UNL1       -0.0025
     25 C         142.8168  143.5817  160.7999 C.ar    1  UNL1        0.0042
     26 C         144.4406  143.2641  164.4072 C.3     1  UNL1        0.1194
     27 N         143.9002  143.0512  165.7902 N.am    1  UNL1       -0.2665
     28 C         143.2536  141.7465  166.1501 C.2     1  UNL1        0.4022
     29 O         143.1473  140.6547  165.1270 O.2     1  UNL1       -0.2264
     30 H         143.9700  143.7678  166.4616 H       1  UNL1        0.1531
     31 O         142.7132  141.5336  167.5331 O.3     1  UNL1       -0.4296
     32 C         141.2903  141.8909  167.8456 C.3     1  UNL1        0.2382
     33 C         140.2861  142.0095  166.7377 C.ar    1  UNL1        0.0405
     34 C         140.0408  143.3385  166.0869 C.ar    1  UNL1        0.0025
     35 C         139.0366  143.4571  164.9790 C.ar    1  UNL1        0.0205
     36 C         138.2777  142.2467  164.5219 C.ar    1  UNL1        0.0989
     37 N         138.5230  140.9176  165.1727 N.ar    1  UNL1       -0.2425
     38 C         139.5272  140.7990  166.2806 C.ar    1  UNL1        0.0982
@<TRIPOS>BOND
     1     5     6    1
     2     6     7   ar
     3     7     8   ar
     4     8     9   ar
     5     9    14    1
     6    14    15   ar
     7    15    16   ar
     8    16    17   ar
     9    17    18   ar
    10    18    19   ar
    11     9    10   ar
    12    10    11   ar
    13    11     1    1
    14     1     2   am
    15     2     3    2
    16     2    20    1
    17    20    21   ar
    18    21    22   ar
    19    22    23   ar
    20    23    26    1
    21    26    27    1
    22    27    28   am
    23    28    29    2
    24    28    31    1
    25    31    32    1
    26    32    33    1
    27    33    34   ar
    28    34    35   ar
    29    35    36   ar
    30    36    37   ar
    31    37    38   ar
    32    23    24   ar
    33    24    25   ar
    34    11     6   ar
    35    25    20   ar
    36    19    14   ar
    37    38    33   ar
    38     5    12    1
    39     5    13    1
    40     1     4    1
    41    27    30    1
@<TRIPOS>MOLECULE
*****
 38 41 0 0 0
SMALL
GASTEIGER

@<TRIPOS>ATOM
      1 N         139.9531  141.5243  162.9884 N.am    1  UNL1       -0.2794
      2 C         139.0656  142.5928  162.4221 C.2     1  UNL1        0.2495
      3 O         137.8173  142.9947  163.1502 O.2     1  UNL1       -0.2698
      4 H         140.7724  141.2606  162.5105 H       1  UNL1        0.1552
      5 N         138.1209  139.1488  162.9923 N.pl3   1  UNL1       -0.3560
      6 C         138.6761  139.6699  164.2847 C.ar    1  UNL1        0.0552
      7 C         138.3153  139.0032  165.5790 C.ar    1  UNL1        0.0153
      8 C         138.8705  139.5243  166.8714 C.ar    1  UNL1        0.0013
      9 C         139.7866  140.7120  166.8694 C.ar    1  UNL1        0.0013
     10 C         140.1475  141.3786  165.5751 C.ar    1  UNL1        0.0159
     11 C         139.5922  140.8576  164.2827 C.ar    1  UNL1        0.0636
     12 H         137.5196  138.3692  162.9936 H       1  UNL1        0.1424
     13 H         138.3577  139.5864  162.1428 H       1  UNL1        0.1424
     14 C         140.3419  141.2330  168.1618 C.ar    1  UNL1        0.0000
     15 C         140.6625  140.2832  169.2775 C.ar    1  UNL1        0.0000
     16 C         141.2178  140.8042  170.5698 C.ar    1  UNL1        0.0000
     17 C         141.4524  142.2751  170.7465 C.ar    1  UNL1        0.0000
     18 C         141.1318  143.2250  169.6308 C.ar    1  UNL1        0.0000
     19 C         140.5765  142.7040  168.3384 C.ar    1  UNL1        0.0000
     20 C         139.4265  143.2595  161.1278 C.ar    1  UNL1        0.0537
     21 C         140.0985  144.6006  161.1367 C.ar    1  UNL1        0.0042
     22 C         140.4593  145.2673  159.8425 C.ar    1  UNL1       -0.0025
     23 C         140.1483  144.5930  158.5392 C.ar    1  UNL1       -0.0025
     24 C         139.4763  143.2520  158.5303 C.ar    1  UNL1       -0.0025
     25 C         139.1155  142.5852  159.8245 C.ar    1  UNL1        0.0042
     26 C         140.5092  145.2597  157.2449 C.3     1  UNL1        0.1194
     27 N         140.2293  146.7205  157.0501 N.am    1  UNL1       -0.2665
     28 C         139.1485  147.1577  156.1064 C.2     1  UNL1        0.4022
     29 O         138.3475  146.1343  155.3575 O.2     1  UNL1       -0.2264
     30 H         140.7550  147.3922  157.5417 H       1  UNL1        0.1531
     31 O         138.8686  148.6185  155.9117 O.3     1  UNL1       -0.4296
     32 C         139.3616  149.3189  154.6803 C.3     1  UNL1        0.2382
     33 C         139.1881  150.8023  154.5410 C.ar    1  UNL1        0.0405
     34 C         139.2961  151.4466  153.1908 C.ar    1  UNL1        0.0025
     35 C         139.1226  152.9300  153.0515 C.ar    1  UNL1        0.0205
     36 C         138.8410  153.7691  154.2625 C.ar    1  UNL1        0.0989
     37 N         138.7330  153.1249  155.6128 N.ar    1  UNL1       -0.2425
     38 C         138.9065  151.6415  155.7521 C.ar    1  UNL1        0.0982
@<TRIPOS>BOND
     1     5     6    1
     2     6     7   ar
     3     7     8   ar
     4     8     9   ar
     5     9    14    1
     6    14    15   ar
     7    15    16   ar
     8    16    17   ar
     9    17    18   ar
    10    18    19   ar
    11     9    10   ar
    12    10    11   ar
    13    11     1    1
    14     1     2   am
    15     2     3    2
    16     2    20    1
    17    20    21   ar
    18    21    22   ar
    19    22    23   ar
    20    23    26    1
    21    26    27    1
    22    27    28   am
    23    28    29    2
    24    28    31    1
    25    31    32    1
    26    32    33    1
    27    33    34   ar
    28    34    35   ar
    29    35    36   ar
    30    36    37   ar
    31    37    38   ar
    32    23    24   ar
    33    24    25   ar
    34    11     6   ar
    35    25    20   ar
    36    19    14   ar
    37    38    33   ar
    38     5    12    1
    39     5    13    1
    40     1     4    1
    41    27    30    1
@<TRIPOS>MOLECULE
*****
 38 41 0 0 0
SMALL
GASTEIGER

@<TRIPOS>ATOM
      1 N         139.7734  142.0667  162.2400 N.am    1  UNL1       -0.2794
      2 C         138.7236  141.1508  161.6843 C.2     1  UNL1        0.2495
      3 O         137.4266  140.9658  162.4148 O.2     1  UNL1       -0.2698
      4 H         140.6246  142.1881  161.7605 H       1  UNL1        0.1552
      5 N         137.6916  144.2233  162.3636 N.pl3   1  UNL1       -0.3560
      6 C         138.4854  143.8761  163.5881 C.ar    1  UNL1        0.0552
      7 C         138.2383  144.6071  164.8744 C.ar    1  UNL1        0.0153
      8 C         139.0321  144.2599  166.0988 C.ar    1  UNL1        0.0013
      9 C         140.0730  143.1816  166.0370 C.ar    1  UNL1        0.0013
     10 C         140.3201  142.4506  164.7508 C.ar    1  UNL1        0.0159
     11 C         139.5263  142.7978  163.5263 C.ar    1  UNL1        0.0636
     12 H         137.0084  144.9311  162.4042 H       1  UNL1        0.1424
     13 H         137.8538  143.7435  161.5194 H       1  UNL1        0.1424
     14 C         140.8668  142.8344  167.2615 C.ar    1  UNL1        0.0000
     15 C         142.1809  142.1238  167.1268 C.ar    1  UNL1        0.0000
     16 C         142.9747  141.7766  168.3513 C.ar    1  UNL1        0.0000
     17 C         142.4544  142.1399  169.7104 C.ar    1  UNL1        0.0000
     18 C         141.1403  142.8505  169.8451 C.ar    1  UNL1        0.0000
     19 C         140.3465  143.1977  168.6206 C.ar    1  UNL1        0.0000
     20 C         138.9707  140.4197  160.3980 C.ar    1  UNL1        0.0537
     21 C         139.7435  139.1341  160.4026 C.ar    1  UNL1        0.0042
     22 C         139.9906  138.4030  159.1164 C.ar    1  UNL1       -0.0025
     23 C         139.4650  138.9575  157.8256 C.ar    1  UNL1       -0.0025
     24 C         138.6922  140.2431  157.8210 C.ar    1  UNL1       -0.0025
     25 C         138.4451  140.9742  159.1072 C.ar    1  UNL1        0.0042
     26 C         139.7121  138.2264  156.5393 C.3     1  UNL1        0.1194
     27 N         140.3518  136.8698  156.5586 N.am    1  UNL1       -0.2665
     28 C         140.4752  136.0806  155.2890 C.2     1  UNL1        0.4022
     29 O         139.9589  136.6480  154.0001 O.2     1  UNL1       -0.2264
     30 H         140.6907  136.4974  157.4046 H       1  UNL1        0.1531
     31 O         141.1150  134.7240  155.3084 O.3     1  UNL1       -0.4296
     32 C         142.5813  134.5822  155.0263 C.3     1  UNL1        0.2382
     33 C         143.4239  133.6757  155.8738 C.ar    1  UNL1        0.0405
     34 C         143.8746  132.3502  155.3355 C.ar    1  UNL1        0.0025
     35 C         144.7172  131.4438  156.1831 C.ar    1  UNL1        0.0205
     36 C         145.1091  131.8628  157.5690 C.ar    1  UNL1        0.0989
     37 N         144.6584  133.1884  158.1074 N.ar    1  UNL1       -0.2425
     38 C         143.8158  134.0948  157.2598 C.ar    1  UNL1        0.0982
@<TRIPOS>BOND
     1     5     6    1
     2     6     7   ar
     3     7     8   ar
     4     8     9   ar
     5     9    14    1
     6    14    15   ar
     7    15    16   ar
     8    16    17   ar
     9    17    18   ar
    10    18    19   ar
    11     9    10   ar
    12    10    11   ar
    13    11     1    1
    14     1     2   am
    15     2     3    2
    16     2    20    1
    17    20    21   ar
    18    21    22   ar
    19    22    23   ar
    20    23    26    1
    21    26    27    1
    22    27    28   am
    23    28    29    2
    24    28    31    1
    25    31    32    1
    26    32    33    1
    27    33    34   ar
    28    34    35   ar
    29    35    36   ar
    30    36    37   ar
    31    37    38   ar
    32    23    24   ar
    33    24    25   ar
    34    11     6   ar
    35    25    20   ar
    36    19    14   ar
    37    38    33   ar
    38     5    12    1
    39     5    13    1
    40     1     4    1
    41    27    30    1
@<TRIPOS>MOLECULE
*****
 38 41 0 0 0
SMALL
GASTEIGER

@<TRIPOS>ATOM
      1 N         141.7984  138.5009  158.6741 N.am    1  UNL1       -0.2794
      2 C         140.2986  138.5135  158.6881 C.2     1  UNL1        0.2495
      3 O         139.5324  137.7408  157.6557 O.2     1  UNL1       -0.2698
      4 H         142.3013  139.0081  159.3517 H       1  UNL1        0.1552
      5 N         143.1043  139.9186  156.3752 N.pl3   1  UNL1       -0.3560
      6 C         143.1851  138.4243  156.4783 C.ar    1  UNL1        0.0552
      7 C         143.9187  137.6389  155.4320 C.ar    1  UNL1        0.0153
      8 C         143.9994  136.1446  155.5350 C.ar    1  UNL1        0.0013
      9 C         143.3465  135.4358  156.6844 C.ar    1  UNL1        0.0013
     10 C         142.6129  136.2212  157.7308 C.ar    1  UNL1        0.0159
     11 C         142.5321  137.7155  157.6277 C.ar    1  UNL1        0.0636
     12 H         143.5329  140.3839  155.6208 H       1  UNL1        0.1424
     13 H         142.6228  140.4341  157.0620 H       1  UNL1        0.1424
     14 C         143.4272  133.9415  156.7875 C.ar    1  UNL1        0.0000
     15 C         142.4113  133.0857  156.0908 C.ar    1  UNL1        0.0000
     16 C         142.4920  131.5914  156.1939 C.ar    1  UNL1        0.0000
     17 C         143.5887  130.9530  156.9937 C.ar    1  UNL1        0.0000
     18 C         144.6046  131.8088  157.6903 C.ar    1  UNL1        0.0000
     19 C         144.5239  133.3030  157.5873 C.ar    1  UNL1        0.0000
     20 C         139.5649  139.2990  159.7345 C.ar    1  UNL1        0.0537
     21 C         138.9013  138.5891  160.8771 C.ar    1  UNL1        0.0042
     22 C         138.1676  139.3744  161.9235 C.ar    1  UNL1       -0.0025
     23 C         138.0975  140.8696  161.8272 C.ar    1  UNL1       -0.0025
     24 C         138.7612  141.5795  160.6846 C.ar    1  UNL1       -0.0025
     25 C         139.4948  140.7942  159.6382 C.ar    1  UNL1        0.0042
     26 C         137.3638  141.6550  162.8736 C.3     1  UNL1        0.1194
     27 N         137.7482  141.5227  164.3175 N.am    1  UNL1       -0.2665
     28 C         139.0686  142.0516  164.7937 C.2     1  UNL1        0.4022
     29 O         140.0047  142.7128  163.8259 O.2     1  UNL1       -0.2264
     30 H         137.1338  141.0888  164.9527 H       1  UNL1        0.1531
     31 O         139.4529  141.9193  166.2376 O.3     1  UNL1       -0.4296
     32 C         139.5790  140.5598  166.8586 C.3     1  UNL1        0.2382
     33 C         140.1178  139.4145  166.0535 C.ar    1  UNL1        0.0405
     34 C         139.1753  138.4435  165.4065 C.ar    1  UNL1        0.0025
     35 C         139.7141  137.2983  164.6015 C.ar    1  UNL1        0.0205
     36 C         141.1955  137.1241  164.4434 C.ar    1  UNL1        0.0989
     37 N         142.1382  138.0951  165.0904 N.ar    1  UNL1       -0.2425
     38 C         141.5993  139.2403  165.8955 C.ar    1  UNL1        0.0982
@<TRIPOS>BOND
     1     5     6    1
     2     6     7   ar
     3     7     8   ar
     4     8     9   ar
     5     9    14    1
     6    14    15   ar
     7    15    16   ar
     8    16    17   ar
     9    17    18   ar
    10    18    19   ar
    11     9    10   ar
    12    10    11   ar
    13    11     1    1
    14     1     2   am
    15     2     3    2
    16     2    20    1
    17    20    21   ar
    18    21    22   ar
    19    22    23   ar
    20    23    26    1
    21    26    27    1
    22    27    28   am
    23    28    29    2
    24    28    31    1
    25    31    32    1
    26    32    33    1
    27    33    34   ar
    28    34    35   ar
    29    35    36   ar
    30    36    37   ar
    31    37    38   ar
    32    23    24   ar
    33    24    25   ar
    34    11     6   ar
    35    25    20   ar
    36    19    14   ar
    37    38    33   ar
    38     5    12    1
    39     5    13    1
    40     1     4    1
    41    27    30    1
@<TRIPOS>MOLECULE
*****
 38 41 0 0 0
SMALL
GASTEIGER

@<TRIPOS>ATOM
      1 N         141.9001  137.9368  158.8225 N.am    1  UNL1       -0.2794
      2 C         140.4644  138.3533  158.6993 C.2     1  UNL1        0.2495
      3 O         139.7264  138.1300  157.4127 O.2     1  UNL1       -0.2698
      4 H         142.3845  138.0834  159.6669 H       1  UNL1        0.1552
      5 N         142.6175  139.5783  156.4160 N.pl3   1  UNL1       -0.3560
      6 C         142.9565  138.1176  156.4557 C.ar    1  UNL1        0.0552
      7 C         143.6542  137.4777  155.2923 C.ar    1  UNL1        0.0153
      8 C         143.9933  136.0170  155.3320 C.ar    1  UNL1        0.0013
      9 C         143.6346  135.1963  156.5352 C.ar    1  UNL1        0.0013
     10 C         142.9369  135.8362  157.6987 C.ar    1  UNL1        0.0159
     11 C         142.5979  137.2969  157.6589 C.ar    1  UNL1        0.0636
     12 H         142.8530  140.1169  155.6263 H       1  UNL1        0.1424
     13 H         142.1596  139.9983  157.1796 H       1  UNL1        0.1424
     14 C         143.9736  133.7357  156.5749 C.ar    1  UNL1        0.0000
     15 C         143.6833  132.8658  155.3879 C.ar    1  UNL1        0.0000
     16 C         144.0224  131.4052  155.4277 C.ar    1  UNL1        0.0000
     17 C         144.6516  130.8144  156.6544 C.ar    1  UNL1        0.0000
     18 C         144.9419  131.6842  157.8414 C.ar    1  UNL1        0.0000
     19 C         144.6029  133.1449  157.8017 C.ar    1  UNL1        0.0000
     20 C         139.7667  138.9932  159.8629 C.ar    1  UNL1        0.0537
     21 C         139.5723  140.4802  159.8954 C.ar    1  UNL1        0.0042
     22 C         138.8746  141.1202  161.0589 C.ar    1  UNL1       -0.0025
     23 C         138.3713  140.2731  162.1898 C.ar    1  UNL1       -0.0025
     24 C         138.5657  138.7861  162.1573 C.ar    1  UNL1       -0.0025
     25 C         139.2634  138.1462  160.9938 C.ar    1  UNL1        0.0042
     26 C         137.6736  140.9130  163.3534 C.3     1  UNL1        0.1194
     27 N         138.4531  141.2992  164.5753 N.am    1  UNL1       -0.2665
     28 C         139.0425  142.6741  164.6854 C.2     1  UNL1        0.4022
     29 O         138.8523  143.6628  163.5736 O.2     1  UNL1       -0.2264
     30 H         138.5779  140.6502  165.3050 H       1  UNL1        0.1531
     31 O         139.8221  143.0603  165.9073 O.3     1  UNL1       -0.4296
     32 C         140.1798  142.0212  166.9282 C.3     1  UNL1        0.2382
     33 C         141.0643  142.3799  168.0853 C.ar    1  UNL1        0.0405
     34 C         142.4967  141.9350  168.1006 C.ar    1  UNL1        0.0025
     35 C         143.3812  142.2937  169.2577 C.ar    1  UNL1        0.0205
     36 C         142.8333  143.0973  170.3996 C.ar    1  UNL1        0.0989
     37 N         141.4009  143.5422  170.3844 N.ar    1  UNL1       -0.2425
     38 C         140.5164  143.1835  169.2273 C.ar    1  UNL1        0.0982
@<TRIPOS>BOND
     1     5     6    1
     2     6     7   ar
     3     7     8   ar
     4     8     9   ar
     5     9    14    1
     6    14    15   ar
     7    15    16   ar
     8    16    17   ar
     9    17    18   ar
    10    18    19   ar
    11     9    10   ar
    12    10    11   ar
    13    11     1    1
    14     1     2   am
    15     2     3    2
    16     2    20    1
    17    20    21   ar
    18    21    22   ar
    19    22    23   ar
    20    23    26    1
    21    26    27    1
    22    27    28   am
    23    28    29    2
    24    28    31    1
    25    31    32    1
    26    32    33    1
    27    33    34   ar
    28    34    35   ar
    29    35    36   ar
    30    36    37   ar
    31    37    38   ar
    32    23    24   ar
    33    24    25   ar
    34    11     6   ar
    35    25    20   ar
    36    19    14   ar
    37    38    33   ar
    38     5    12    1
    39     5    13    1
    40     1     4    1
    41    27    30    1
@<TRIPOS>MOLECULE
*****
 38 41 0 0 0
SMALL
GASTEIGER

@<TRIPOS>ATOM
      1 N         143.2539  137.4407  157.7713 N.am    1  UNL1       -0.2794
      2 C         142.4192  138.2217  158.7424 C.2     1  UNL1        0.2495
      3 O         140.9229  138.1862  158.6434 O.2     1  UNL1       -0.2698
      4 H         144.2360  137.4640  157.8363 H       1  UNL1        0.1552
      5 N         141.8040  138.8029  155.5258 N.pl3   1  UNL1       -0.3560
      6 C         141.8674  137.3052  155.5783 C.ar    1  UNL1        0.0552
      7 C         141.2058  136.4886  154.5080 C.ar    1  UNL1        0.0153
      8 C         141.2692  134.9908  154.5605 C.ar    1  UNL1        0.0013
      9 C         141.9941  134.3097  155.6832 C.ar    1  UNL1        0.0013
     10 C         142.6556  135.1263  156.7535 C.ar    1  UNL1        0.0159
     11 C         142.5923  136.6241  156.7010 C.ar    1  UNL1        0.0636
     12 H         141.3282  139.2500  154.7889 H       1  UNL1        0.1424
     13 H         142.2382  139.3389  156.2282 H       1  UNL1        0.1424
     14 C         142.0574  132.8120  155.7357 C.ar    1  UNL1        0.0000
     15 C         141.1779  131.9922  154.8390 C.ar    1  UNL1        0.0000
     16 C         141.2412  130.4944  154.8915 C.ar    1  UNL1        0.0000
     17 C         142.1841  129.8165  155.8407 C.ar    1  UNL1        0.0000
     18 C         143.0637  130.6362  156.7375 C.ar    1  UNL1        0.0000
     19 C         143.0004  132.1340  156.6850 C.ar    1  UNL1        0.0000
     20 C         143.0809  139.0384  159.8127 C.ar    1  UNL1        0.0537
     21 C         143.4063  138.4155  161.1379 C.ar    1  UNL1        0.0042
     22 C         144.0679  139.2320  162.2082 C.ar    1  UNL1       -0.0025
     23 C         144.4040  140.6715  161.9533 C.ar    1  UNL1       -0.0025
     24 C         144.0786  141.2943  160.6281 C.ar    1  UNL1       -0.0025
     25 C         143.4170  140.4778  159.5578 C.ar    1  UNL1        0.0042
     26 C         145.0657  141.4881  163.0235 C.3     1  UNL1        0.1194
     27 N         144.2427  142.3892  163.8958 N.am    1  UNL1       -0.2665
     28 C         143.9738  143.8026  163.4718 C.2     1  UNL1        0.4022
     29 O         144.5278  144.3149  162.1754 O.2     1  UNL1       -0.2264
     30 H         143.8791  142.0529  164.7467 H       1  UNL1        0.1531
     31 O         143.1509  144.7037  164.3441 O.3     1  UNL1       -0.4296
     32 C         141.8775  145.2974  163.8191 C.3     1  UNL1        0.2382
     33 C         140.5760  144.5797  164.0213 C.ar    1  UNL1        0.0405
     34 C         139.3605  144.9984  163.2485 C.ar    1  UNL1        0.0025
     35 C         138.0590  144.2807  163.4508 C.ar    1  UNL1        0.0205
     36 C         137.9730  143.1441  164.4259 C.ar    1  UNL1        0.0989
     37 N         139.1885  142.7253  165.1988 N.ar    1  UNL1       -0.2425
     38 C         140.4900  143.4431  164.9965 C.ar    1  UNL1        0.0982
@<TRIPOS>BOND
     1     5     6    1
     2     6     7   ar
     3     7     8   ar
     4     8     9   ar
     5     9    14    1
     6    14    15   ar
     7    15    16   ar
     8    16    17   ar
     9    17    18   ar
    10    18    19   ar
    11     9    10   ar
    12    10    11   ar
    13    11     1    1
    14     1     2   am
    15     2     3    2
    16     2    20    1
    17    20    21   ar
    18    21    22   ar
    19    22    23   ar
    20    23    26    1
    21    26    27    1
    22    27    28   am
    23    28    29    2
    24    28    31    1
    25    31    32    1
    26    32    33    1
    27    33    34   ar
    28    34    35   ar
    29    35    36   ar
    30    36    37   ar
    31    37    38   ar
    32    23    24   ar
    33    24    25   ar
    34    11     6   ar
    35    25    20   ar
    36    19    14   ar
    37    38    33   ar
    38     5    12    1
    39     5    13    1
    40     1     4    1
    41    27    30    1
