@<TRIPOS>MOLECULE
*****
 21 22 0 0 0
SMALL
GASTEIGER

@<TRIPOS>ATOM
      1 C         139.8598  140.7567  167.6689 C.ar    1  UNL1        0.0262
      2 C         138.9903  139.5747  167.9798 C.ar    1  UNL1       -0.0042
      3 C         138.1133  138.9876  166.9138 C.ar    1  UNL1       -0.0219
      4 C         137.2437  137.8056  167.2248 C.3     1  UNL1        0.0310
      5 C         138.1059  139.5825  165.5369 C.ar    1  UNL1       -0.0011
      6 C         138.9755  140.7645  165.2260 C.ar    1  UNL1        0.0369
      7 C         139.8524  141.3516  166.2920 C.ar    1  UNL1        0.1425
      8 C         140.7367  141.3438  168.7349 C.3     1  UNL1        0.0799
      9 C         141.7186  140.4735  169.4618 C.3     1  UNL1        0.0221
     10 C         140.0448  143.2252  170.3876 C.3     1  UNL1        0.0861
     11 N         140.6318  142.8011  169.0740 N.3     1  UNL1       -0.2939
     12 H         141.5779  143.1807  169.0379 H       1  UNL1        0.1235
     13 O         140.7220  142.5337  165.9810 O.3     1  UNL1       -0.4537
     14 C         142.0695  142.3293  165.3545 C.ar    1  UNL1        0.1462
     15 C         142.8016  143.4927  164.7539 C.ar    1  UNL1        0.0384
     16 C         144.1491  143.2884  164.1275 C.ar    1  UNL1        0.0154
     17 C         144.7645  141.9207  164.1016 C.ar    1  UNL1        0.0684
     18 CL        146.1120  141.7163  163.4752 Cl      1  UNL1       -0.0814
     19 C         144.0325  140.7573  164.7021 C.ar    1  UNL1        0.0712
     20 CL        144.6479  139.3897  164.6762 Cl      1  UNL1       -0.0813
     21 C         142.6849  140.9616  165.3286 C.ar    1  UNL1        0.0497
@<TRIPOS>BOND
     1    10    11    1
     2    11     8    1
     3     8     9    1
     4     8     1    1
     5     1     2   ar
     6     2     3   ar
     7     3     4    1
     8     3     5   ar
     9     5     6   ar
    10     6     7   ar
    11     7    13    1
    12    13    14    1
    13    14    15   ar
    14    15    16   ar
    15    16    17   ar
    16    17    18    1
    17    17    19   ar
    18    19    20    1
    19    19    21   ar
    20     7     1   ar
    21    21    14   ar
    22    11    12    1
@<TRIPOS>MOLECULE
*****
 21 22 0 0 0
SMALL
GASTEIGER

@<TRIPOS>ATOM
      1 C         140.9861  140.6331  167.3400 C.ar    1  UNL1        0.0262
      2 C         142.1547  139.7147  167.5421 C.ar    1  UNL1       -0.0042
      3 C         142.6684  138.8916  166.3982 C.ar    1  UNL1       -0.0219
      4 C         143.8371  137.9732  166.6004 C.3     1  UNL1        0.0310
      5 C         142.0134  138.9868  165.0521 C.ar    1  UNL1       -0.0011
      6 C         140.8448  139.9051  164.8500 C.ar    1  UNL1        0.0369
      7 C         140.3311  140.7282  165.9939 C.ar    1  UNL1        0.1425
      8 C         140.4724  141.4562  168.4839 C.3     1  UNL1        0.0799
      9 C         139.8158  140.7865  169.6545 C.3     1  UNL1        0.0221
     10 C         140.4661  143.7396  169.7233 C.3     1  UNL1        0.0861
     11 N         140.6152  142.9491  168.4572 N.3     1  UNL1       -0.2939
     12 H         141.5468  143.1493  168.0931 H       1  UNL1        0.1235
     13 O         139.1624  141.6466  165.7917 O.3     1  UNL1       -0.4537
     14 C         139.2739  142.8051  164.8454 C.ar    1  UNL1        0.1462
     15 C         138.0952  143.2060  164.0086 C.ar    1  UNL1        0.0384
     16 C         138.2067  144.3645  163.0623 C.ar    1  UNL1        0.0154
     17 C         139.4967  145.1221  162.9528 C.ar    1  UNL1        0.0684
     18 CL        139.6081  146.2805  162.0065 Cl      1  UNL1       -0.0814
     19 C         140.6752  144.7212  163.7895 C.ar    1  UNL1        0.0712
     20 CL        141.9652  145.4787  163.6800 Cl      1  UNL1       -0.0813
     21 C         140.5638  143.5626  164.7359 C.ar    1  UNL1        0.0497
@<TRIPOS>BOND
     1    10    11    1
     2    11     8    1
     3     8     9    1
     4     8     1    1
     5     1     2   ar
     6     2     3   ar
     7     3     4    1
     8     3     5   ar
     9     5     6   ar
    10     6     7   ar
    11     7    13    1
    12    13    14    1
    13    14    15   ar
    14    15    16   ar
    15    16    17   ar
    16    17    18    1
    17    17    19   ar
    18    19    20    1
    19    19    21   ar
    20     7     1   ar
    21    21    14   ar
    22    11    12    1
@<TRIPOS>MOLECULE
*****
 21 22 0 0 0
SMALL
GASTEIGER

@<TRIPOS>ATOM
      1 C         138.9862  140.8467  165.2356 C.ar    1  UNL1        0.0262
      2 C         138.1073  139.6715  165.5461 C.ar    1  UNL1       -0.0042
      3 C         138.1309  139.0581  166.9147 C.ar    1  UNL1       -0.0219
      4 C         137.2519  137.8829  167.2252 C.3     1  UNL1        0.0310
      5 C         139.0334  139.6199  167.9729 C.ar    1  UNL1       -0.0011
      6 C         139.9123  140.7951  167.6624 C.ar    1  UNL1        0.0369
      7 C         139.8887  141.4085  166.2938 C.ar    1  UNL1        0.1425
      8 C         138.9625  141.4601  163.8669 C.3     1  UNL1        0.0799
      9 C         139.0256  140.5838  162.6512 C.3     1  UNL1        0.0221
     10 C         137.7684  143.5575  162.9054 C.3     1  UNL1        0.0861
     11 N         138.8759  142.9497  163.7141 N.3     1  UNL1       -0.2939
     12 H         138.8015  143.3384  164.6542 H       1  UNL1        0.1235
     13 O         140.7677  142.5837  165.9833 O.3     1  UNL1       -0.4537
     14 C         142.1076  142.3700  165.3440 C.ar    1  UNL1        0.1462
     15 C         142.8314  143.5237  164.7153 C.ar    1  UNL1        0.0384
     16 C         144.1713  143.3100  164.0760 C.ar    1  UNL1        0.0154
     17 C         144.7876  141.9425  164.0652 C.ar    1  UNL1        0.0684
     18 CL        146.1275  141.7287  163.4259 Cl      1  UNL1       -0.0814
     19 C         144.0639  140.7887  164.6938 C.ar    1  UNL1        0.0712
     20 CL        144.6802  139.4212  164.6831 Cl      1  UNL1       -0.0813
     21 C         142.7239  141.0024  165.3332 C.ar    1  UNL1        0.0497
@<TRIPOS>BOND
     1    10    11    1
     2    11     8    1
     3     8     9    1
     4     8     1    1
     5     1     2   ar
     6     2     3   ar
     7     3     4    1
     8     3     5   ar
     9     5     6   ar
    10     6     7   ar
    11     7    13    1
    12    13    14    1
    13    14    15   ar
    14    15    16   ar
    15    16    17   ar
    16    17    18    1
    17    17    19   ar
    18    19    20    1
    19    19    21   ar
    20     7     1   ar
    21    21    14   ar
    22    11    12    1
@<TRIPOS>MOLECULE
*****
 21 22 0 0 0
SMALL
GASTEIGER

@<TRIPOS>ATOM
      1 C         140.3200  140.3934  166.7044 C.ar    1  UNL1        0.0262
      2 C         139.4936  139.9106  167.8593 C.ar    1  UNL1       -0.0042
      3 C         139.4321  140.7134  169.1250 C.ar    1  UNL1       -0.0219
      4 C         138.6057  140.2305  170.2800 C.3     1  UNL1        0.0310
      5 C         140.1970  141.9989  169.2356 C.ar    1  UNL1       -0.0011
      6 C         141.0233  142.4817  168.0807 C.ar    1  UNL1        0.0369
      7 C         141.0849  141.6790  166.8151 C.ar    1  UNL1        0.1425
      8 C         140.3815  139.5907  165.4388 C.3     1  UNL1        0.0799
      9 C         139.1155  139.1152  164.7900 C.3     1  UNL1        0.0221
     10 C         142.6996  138.4254  165.5746 C.3     1  UNL1        0.0861
     11 N         141.7091  139.2635  164.8220 N.3     1  UNL1       -0.2939
     12 H         141.5152  138.7758  163.9473 H       1  UNL1        0.1235
     13 O         141.9113  142.1619  165.6601 O.3     1  UNL1       -0.4537
     14 C         141.3633  143.2024  164.7290 C.ar    1  UNL1        0.1462
     15 C         142.2863  144.1961  164.0880 C.ar    1  UNL1        0.0384
     16 C         141.7384  145.2366  163.1569 C.ar    1  UNL1        0.0154
     17 C         140.2675  145.2836  162.8668 C.ar    1  UNL1        0.0684
     18 CL        139.7196  146.3242  161.9357 Cl      1  UNL1       -0.0814
     19 C         139.3445  144.2901  163.5077 C.ar    1  UNL1        0.0712
     20 CL        137.8736  144.3370  163.2176 Cl      1  UNL1       -0.0813
     21 C         139.8924  143.2494  164.4389 C.ar    1  UNL1        0.0497
@<TRIPOS>BOND
     1    10    11    1
     2    11     8    1
     3     8     9    1
     4     8     1    1
     5     1     2   ar
     6     2     3   ar
     7     3     4    1
     8     3     5   ar
     9     5     6   ar
    10     6     7   ar
    11     7    13    1
    12    13    14    1
    13    14    15   ar
    14    15    16   ar
    15    16    17   ar
    16    17    18    1
    17    17    19   ar
    18    19    20    1
    19    19    21   ar
    20     7     1   ar
    21    21    14   ar
    22    11    12    1
@<TRIPOS>MOLECULE
*****
 21 22 0 0 0
SMALL
GASTEIGER

@<TRIPOS>ATOM
      1 C         141.6286  139.4894  166.8862 C.ar    1  UNL1        0.0262
      2 C         142.5421  139.6199  168.0688 C.ar    1  UNL1       -0.0042
      3 C         141.9763  139.9301  169.4229 C.ar    1  UNL1       -0.0219
      4 C         142.8898  140.0607  170.6055 C.3     1  UNL1        0.0310
      5 C         140.4970  140.1098  169.5944 C.ar    1  UNL1       -0.0011
      6 C         139.5836  139.9793  168.4119 C.ar    1  UNL1        0.0369
      7 C         140.1494  139.6691  167.0578 C.ar    1  UNL1        0.1425
      8 C         142.1945  139.1791  165.5321 C.3     1  UNL1        0.0799
      9 C         143.2245  140.0844  164.9243 C.3     1  UNL1        0.0221
     10 C         141.3692  138.0676  163.3337 C.3     1  UNL1        0.0861
     11 N         141.7303  137.9636  164.7858 N.3     1  UNL1       -0.2939
     12 H         142.4774  137.2726  164.8547 H       1  UNL1        0.1235
     13 O         139.2359  139.5385  165.8751 O.3     1  UNL1       -0.4537
     14 C         138.8239  140.7594  165.1073 C.ar    1  UNL1        0.1462
     15 C         137.8873  140.6323  163.9425 C.ar    1  UNL1        0.0384
     16 C         137.4754  141.8532  163.1746 C.ar    1  UNL1        0.0154
     17 C         137.9999  143.2013  163.5716 C.ar    1  UNL1        0.0684
     18 CL        137.5879  144.4222  162.8038 Cl      1  UNL1       -0.0814
     19 C         138.9364  143.3285  164.7364 C.ar    1  UNL1        0.0712
     20 CL        139.4609  144.6765  165.1333 Cl      1  UNL1       -0.0813
     21 C         139.3484  142.1075  165.5043 C.ar    1  UNL1        0.0497
@<TRIPOS>BOND
     1    10    11    1
     2    11     8    1
     3     8     9    1
     4     8     1    1
     5     1     2   ar
     6     2     3   ar
     7     3     4    1
     8     3     5   ar
     9     5     6   ar
    10     6     7   ar
    11     7    13    1
    12    13    14    1
    13    14    15   ar
    14    15    16   ar
    15    16    17   ar
    16    17    18    1
    17    17    19   ar
    18    19    20    1
    19    19    21   ar
    20     7     1   ar
    21    21    14   ar
    22    11    12    1
@<TRIPOS>MOLECULE
*****
 21 22 0 0 0
SMALL
GASTEIGER

@<TRIPOS>ATOM
      1 C         139.2772  142.9654  163.5567 C.ar    1  UNL1        0.0262
      2 C         138.9729  144.0895  162.6113 C.ar    1  UNL1       -0.0042
      3 C         139.9184  145.2482  162.4948 C.ar    1  UNL1       -0.0219
      4 C         139.6140  146.3724  161.5493 C.3     1  UNL1        0.0310
      5 C         141.1681  145.2827  163.3235 C.ar    1  UNL1       -0.0011
      6 C         141.4724  144.1586  164.2688 C.ar    1  UNL1        0.0369
      7 C         140.5269  142.9999  164.3854 C.ar    1  UNL1        0.1425
      8 C         138.3317  141.8068  163.6733 C.3     1  UNL1        0.0799
      9 C         137.6904  141.2353  162.4436 C.3     1  UNL1        0.0221
     10 C         138.2116  139.7498  165.2557 C.3     1  UNL1        0.0861
     11 N         138.0274  141.2195  165.0196 N.3     1  UNL1       -0.2939
     12 H         138.6221  141.7028  165.6928 H       1  UNL1        0.1235
     13 O         140.8312  141.8758  165.3308 O.3     1  UNL1       -0.4537
     14 C         141.3640  142.1718  166.7014 C.ar    1  UNL1        0.1462
     15 C         142.8178  141.9584  167.0032 C.ar    1  UNL1        0.0384
     16 C         143.3506  142.2545  168.3737 C.ar    1  UNL1        0.0154
     17 C         142.4297  142.7640  169.4425 C.ar    1  UNL1        0.0684
     18 CL        142.9625  143.0600  170.8130 Cl      1  UNL1       -0.0814
     19 C         140.9760  142.9774  169.1408 C.ar    1  UNL1        0.0712
     20 CL        140.0551  143.4868  170.2096 Cl      1  UNL1       -0.0813
     21 C         140.4431  142.6813  167.7702 C.ar    1  UNL1        0.0497
@<TRIPOS>BOND
     1    10    11    1
     2    11     8    1
     3     8     9    1
     4     8     1    1
     5     1     2   ar
     6     2     3   ar
     7     3     4    1
     8     3     5   ar
     9     5     6   ar
    10     6     7   ar
    11     7    13    1
    12    13    14    1
    13    14    15   ar
    14    15    16   ar
    15    16    17   ar
    16    17    18    1
    17    17    19   ar
    18    19    20    1
    19    19    21   ar
    20     7     1   ar
    21    21    14   ar
    22    11    12    1
@<TRIPOS>MOLECULE
*****
 21 22 0 0 0
SMALL
GASTEIGER

@<TRIPOS>ATOM
      1 C         140.0238  140.6665  167.3674 C.ar    1  UNL1        0.0262
      2 C         138.9871  139.7041  167.8663 C.ar    1  UNL1       -0.0042
      3 C         138.2046  138.8734  166.8929 C.ar    1  UNL1       -0.0219
      4 C         137.1678  137.9110  167.3919 C.3     1  UNL1        0.0310
      5 C         138.4588  139.0051  165.4205 C.ar    1  UNL1       -0.0011
      6 C         139.4955  139.9675  164.9215 C.ar    1  UNL1        0.0369
      7 C         140.2780  140.7982  165.8950 C.ar    1  UNL1        0.1425
      8 C         140.8063  141.4972  168.3408 C.3     1  UNL1        0.0799
      9 C         140.4302  142.9300  168.5762 C.3     1  UNL1        0.0221
     10 C         143.1808  141.7237  169.3706 C.3     1  UNL1        0.0861
     11 N         141.9650  140.8950  169.0789 N.3     1  UNL1       -0.2939
     12 H         141.6061  140.5724  169.9775 H       1  UNL1        0.1235
     13 O         141.3148  141.7606  165.3960 O.3     1  UNL1       -0.4537
     14 C         140.9122  142.9074  164.5169 C.ar    1  UNL1        0.1462
     15 C         139.7958  143.8176  164.9357 C.ar    1  UNL1        0.0384
     16 C         139.3933  144.9643  164.0566 C.ar    1  UNL1        0.0154
     17 C         140.1071  145.2010  162.7588 C.ar    1  UNL1        0.0684
     18 CL        139.7046  146.3478  161.8797 Cl      1  UNL1       -0.0814
     19 C         141.2235  144.2909  162.3400 C.ar    1  UNL1        0.0712
     20 CL        141.9373  144.5276  161.0421 Cl      1  UNL1       -0.0813
     21 C         141.6261  143.1441  163.2191 C.ar    1  UNL1        0.0497
@<TRIPOS>BOND
     1    10    11    1
     2    11     8    1
     3     8     9    1
     4     8     1    1
     5     1     2   ar
     6     2     3   ar
     7     3     4    1
     8     3     5   ar
     9     5     6   ar
    10     6     7   ar
    11     7    13    1
    12    13    14    1
    13    14    15   ar
    14    15    16   ar
    15    16    17   ar
    16    17    18    1
    17    17    19   ar
    18    19    20    1
    19    19    21   ar
    20     7     1   ar
    21    21    14   ar
    22    11    12    1
@<TRIPOS>MOLECULE
*****
 21 22 0 0 0
SMALL
GASTEIGER

@<TRIPOS>ATOM
      1 C         141.5293  141.2872  167.0248 C.ar    1  UNL1        0.0262
      2 C         141.4853  142.4810  167.9318 C.ar    1  UNL1       -0.0042
      3 C         140.5379  142.5050  169.0946 C.ar    1  UNL1       -0.0219
      4 C         140.4940  143.6990  170.0016 C.3     1  UNL1        0.0310
      5 C         139.6345  141.3353  169.3502 C.ar    1  UNL1       -0.0011
      6 C         139.6785  140.1414  168.4432 C.ar    1  UNL1        0.0369
      7 C         140.6259  140.1174  167.2805 C.ar    1  UNL1        0.1425
      8 C         142.4767  141.2631  165.8621 C.3     1  UNL1        0.0799
      9 C         142.5060  142.4091  164.8947 C.3     1  UNL1        0.0221
     10 C         143.4953  139.4349  164.3227 C.3     1  UNL1        0.0861
     11 N         143.3947  140.0931  165.6668 N.3     1  UNL1       -0.2939
     12 H         144.3329  140.4112  165.9098 H       1  UNL1        0.1235
     13 O         140.6699  138.9235  166.3734 O.3     1  UNL1       -0.4537
     14 C         139.8671  138.9142  165.1064 C.ar    1  UNL1        0.1462
     15 C         139.9378  137.7348  164.1822 C.ar    1  UNL1        0.0384
     16 C         139.1350  137.7255  162.9152 C.ar    1  UNL1        0.0154
     17 C         138.2614  138.8957  162.5723 C.ar    1  UNL1        0.0684
     18 CL        137.4586  138.8864  161.3053 Cl      1  UNL1       -0.0814
     19 C         138.1906  140.0750  163.4964 C.ar    1  UNL1        0.0712
     20 CL        137.3170  141.2452  163.1534 Cl      1  UNL1       -0.0813
     21 C         138.9935  140.0843  164.7635 C.ar    1  UNL1        0.0497
@<TRIPOS>BOND
     1    10    11    1
     2    11     8    1
     3     8     9    1
     4     8     1    1
     5     1     2   ar
     6     2     3   ar
     7     3     4    1
     8     3     5   ar
     9     5     6   ar
    10     6     7   ar
    11     7    13    1
    12    13    14    1
    13    14    15   ar
    14    15    16   ar
    15    16    17   ar
    16    17    18    1
    17    17    19   ar
    18    19    20    1
    19    19    21   ar
    20     7     1   ar
    21    21    14   ar
    22    11    12    1
@<TRIPOS>MOLECULE
*****
 21 22 0 0 0
SMALL
GASTEIGER

@<TRIPOS>ATOM
      1 C         139.3433  140.5431  166.7249 C.ar    1  UNL1        0.0262
      2 C         139.3982  139.9222  168.0893 C.ar    1  UNL1       -0.0042
      3 C         140.0710  140.6475  169.2168 C.ar    1  UNL1       -0.0219
      4 C         140.1258  140.0265  170.5812 C.3     1  UNL1        0.0310
      5 C         140.6890  141.9935  168.9800 C.ar    1  UNL1       -0.0011
      6 C         140.6342  142.6144  167.6157 C.ar    1  UNL1        0.0369
      7 C         139.9613  141.8891  166.4881 C.ar    1  UNL1        0.1425
      8 C         138.6705  139.8178  165.5974 C.3     1  UNL1        0.0799
      9 C         138.9025  138.3483  165.4065 C.3     1  UNL1        0.0221
     10 C         137.8899  140.3607  163.1796 C.3     1  UNL1        0.0861
     11 N         137.7657  140.5622  164.6608 N.3     1  UNL1       -0.2939
     12 H         136.8099  140.3110  164.9130 H       1  UNL1        0.1235
     13 O         139.9065  142.5101  165.1237 O.3     1  UNL1       -0.4537
     14 C         141.1314  142.5282  164.2582 C.ar    1  UNL1        0.1462
     15 C         141.5587  141.2843  163.5369 C.ar    1  UNL1        0.0384
     16 C         142.7836  141.3025  162.6714 C.ar    1  UNL1        0.0154
     17 C         143.5814  142.5645  162.5272 C.ar    1  UNL1        0.0684
     18 CL        144.8063  142.5827  161.6617 Cl      1  UNL1       -0.0814
     19 C         143.1542  143.8084  163.2484 C.ar    1  UNL1        0.0712
     20 CL        143.9520  145.0705  163.1041 Cl      1  UNL1       -0.0813
     21 C         141.9292  143.7903  164.1140 C.ar    1  UNL1        0.0497
@<TRIPOS>BOND
     1    10    11    1
     2    11     8    1
     3     8     9    1
     4     8     1    1
     5     1     2   ar
     6     2     3   ar
     7     3     4    1
     8     3     5   ar
     9     5     6   ar
    10     6     7   ar
    11     7    13    1
    12    13    14    1
    13    14    15   ar
    14    15    16   ar
    15    16    17   ar
    16    17    18    1
    17    17    19   ar
    18    19    20    1
    19    19    21   ar
    20     7     1   ar
    21    21    14   ar
    22    11    12    1
