@<TRIPOS>MOLECULE
*****
 32 36 0 0 0
SMALL
GASTEIGER

@<TRIPOS>ATOM
      1 N         142.7091  142.9812  164.6709 N.3     1  UNL1       -0.2710
      2 C         141.8865  142.1271  163.7523 C.3     1  UNL1        0.0728
      3 C         141.6236  142.5762  162.3455 C.3     1  UNL1        0.0298
      4 C         142.1834  143.8793  161.8572 C.3     1  UNL1        0.1147
      5 C         143.0060  144.7334  162.7758 C.3     1  UNL1        0.0298
      6 C         143.2689  144.2843  164.1827 C.3     1  UNL1        0.0728
      7 C         141.9205  144.3285  160.4504 C.2     1  UNL1        0.3507
      8 N         140.8269  145.2564  160.0108 N.2     1  UNL1       -0.0350
      9 C         140.9356  145.4299  158.5249 C.2     1  UNL1        0.2326
     10 C         140.1276  146.2292  157.5460 C.2     1  UNL1        0.0609
     11 C         140.4804  146.2078  156.0881 C.2     1  UNL1        0.0540
     12 CL        139.6724  147.0071  155.1092 Cl      1  UNL1       -0.0828
     13 C         141.6411  145.3872  155.6093 C.2     1  UNL1       -0.0249
     14 C         141.9938  145.3659  154.1516 C.3     1  UNL1        0.0277
     15 C         142.4491  144.5880  156.5883 C.3     1  UNL1        0.1006
     16 C         142.0964  144.6093  158.0460 C.2     1  UNL1        0.2171
     17 N         142.7050  143.9286  159.2360 N.2     1  UNL1       -0.0389
     18 C         142.9720  142.5320  166.0777 C.3     1  UNL1        0.0970
     19 C         142.6433  141.1279  166.4905 C.3     1  UNL1        0.1264
     20 C         138.8691  138.8604  165.5613 C.ar    1  UNL1        0.1593
     21 C         137.8575  138.6134  166.6409 C.ar    1  UNL1        0.1357
     22 N         138.1039  139.1222  168.0303 N.ar    1  UNL1       -0.2392
     23 C         139.3620  139.8781  168.3400 C.ar    1  UNL1        0.0975
     24 C         139.6084  140.3869  169.7294 C.ar    1  UNL1        0.0255
     25 C         140.8665  141.1427  170.0392 C.ar    1  UNL1        0.0623
     26 C         141.8782  141.3897  168.9595 C.ar    1  UNL1        0.2611
     27 O         143.1362  142.1456  169.2693 O.2     1  UNL1       -0.2670
     28 N         141.6317  140.8809  167.5702 N.ar    1  UNL1       -0.2926
     29 C         140.3736  140.1250  167.2604 C.ar    1  UNL1        0.0832
     30 C         140.1271  139.6162  165.8711 C.ar    1  UNL1        0.0573
     31 C         139.7211  137.6592  163.4209 C.3     1  UNL1        0.2525
     32 O         138.6226  138.3515  164.1719 O.3     1  UNL1       -0.4698
@<TRIPOS>BOND
     1    31    32    1
     2    32    20    1
     3    20    21   ar
     4    21    22   ar
     5    22    23   ar
     6    23    24   ar
     7    24    25   ar
     8    25    26   ar
     9    26    27    2
    10    26    28   ar
    11    28    19    1
    12    19    18    1
    13    18     1    1
    14     1     2    1
    15     2     3    1
    16     3     4    1
    17     4     7    1
    18     7     8    2
    19     8     9    1
    20     9    10    2
    21    10    11    1
    22    11    12    1
    23    11    13    2
    24    13    14    1
    25    13    15    1
    26    15    16    1
    27    16    17    2
    28     4     5    1
    29     5     6    1
    30    28    29   ar
    31    29    30   ar
    32    30    20   ar
    33    29    23   ar
    34     6     1    1
    35    17     7    1
    36    16     9    1
@<TRIPOS>MOLECULE
*****
 32 36 0 0 0
SMALL
GASTEIGER

@<TRIPOS>ATOM
      1 N         140.6865  143.1963  165.3368 N.3     1  UNL1       -0.2710
      2 C         142.0335  143.3028  164.6855 C.3     1  UNL1        0.0728
      3 C         142.1400  143.7047  163.2443 C.3     1  UNL1        0.0298
      4 C         140.8995  144.0000  162.4544 C.3     1  UNL1        0.1147
      5 C         139.5525  143.8934  163.1058 C.3     1  UNL1        0.0298
      6 C         139.4460  143.4916  164.5470 C.3     1  UNL1        0.0728
      7 C         141.0059  144.4018  161.0131 C.2     1  UNL1        0.3507
      8 N         142.0901  143.9916  160.0612 N.2     1  UNL1       -0.0350
      9 C         141.8011  144.6207  158.7305 C.2     1  UNL1        0.2326
     10 C         142.5246  144.5692  157.4176 C.2     1  UNL1        0.0609
     11 C         141.9853  145.3168  156.2342 C.2     1  UNL1        0.0540
     12 CL        142.7089  145.2653  154.9212 Cl      1  UNL1       -0.0828
     13 C         140.7225  146.1158  156.3638 C.2     1  UNL1       -0.0249
     14 C         140.1833  146.8633  155.1804 C.3     1  UNL1        0.0277
     15 C         139.9990  146.1673  157.6767 C.3     1  UNL1        0.1006
     16 C         140.5382  145.4198  158.8600 C.2     1  UNL1        0.2171
     17 N         140.0468  145.2845  160.2708 N.2     1  UNL1       -0.0389
     18 C         140.5801  142.7944  166.7781 C.3     1  UNL1        0.0970
     19 C         140.2573  141.3747  167.1390 C.3     1  UNL1        0.1264
     20 C         139.0938  139.0532  163.4639 C.ar    1  UNL1        0.1593
     21 C         139.9681  137.9373  162.9736 C.ar    1  UNL1        0.1357
     22 N         141.2303  137.5953  163.7084 N.ar    1  UNL1       -0.2392
     23 C         141.6181  138.3691  164.9334 C.ar    1  UNL1        0.0975
     24 C         142.8803  138.0271  165.6682 C.ar    1  UNL1        0.0255
     25 C         143.2682  138.8010  166.8933 C.ar    1  UNL1        0.0623
     26 C         142.3938  139.9169  167.3836 C.ar    1  UNL1        0.2611
     27 O         142.7816  140.6907  168.6086 O.2     1  UNL1       -0.2670
     28 N         141.1316  140.2589  166.6488 N.ar    1  UNL1       -0.2926
     29 C         140.7438  139.4850  165.4237 C.ar    1  UNL1        0.0832
     30 C         139.4816  139.8270  164.6889 C.ar    1  UNL1        0.0573
     31 C         137.7271  139.1336  161.2558 C.3     1  UNL1        0.2525
     32 O         137.8316  139.3952  162.7291 O.3     1  UNL1       -0.4698
@<TRIPOS>BOND
     1    31    32    1
     2    32    20    1
     3    20    21   ar
     4    21    22   ar
     5    22    23   ar
     6    23    24   ar
     7    24    25   ar
     8    25    26   ar
     9    26    27    2
    10    26    28   ar
    11    28    19    1
    12    19    18    1
    13    18     1    1
    14     1     2    1
    15     2     3    1
    16     3     4    1
    17     4     7    1
    18     7     8    2
    19     8     9    1
    20     9    10    2
    21    10    11    1
    22    11    12    1
    23    11    13    2
    24    13    14    1
    25    13    15    1
    26    15    16    1
    27    16    17    2
    28     4     5    1
    29     5     6    1
    30    28    29   ar
    31    29    30   ar
    32    30    20   ar
    33    29    23   ar
    34     6     1    1
    35    17     7    1
    36    16     9    1
@<TRIPOS>MOLECULE
*****
 32 36 0 0 0
SMALL
GASTEIGER

@<TRIPOS>ATOM
      1 N         143.0838  142.6678  164.0125 N.3     1  UNL1       -0.2710
      2 C         142.5089  144.0505  163.9259 C.3     1  UNL1        0.0728
      3 C         142.1221  144.6198  162.5932 C.3     1  UNL1        0.0298
      4 C         142.3101  143.8063  161.3471 C.3     1  UNL1        0.1147
      5 C         142.8850  142.4235  161.4337 C.3     1  UNL1        0.0298
      6 C         143.2718  141.8543  162.7664 C.3     1  UNL1        0.0728
      7 C         141.9232  144.3755  160.0142 C.2     1  UNL1        0.3507
      8 N         142.6690  144.1898  158.7261 N.2     1  UNL1       -0.0350
      9 C         141.9293  144.9299  157.6514 C.2     1  UNL1        0.2326
     10 C         142.1957  145.1013  156.1852 C.2     1  UNL1        0.0609
     11 C         141.2591  145.9159  155.3429 C.2     1  UNL1        0.0540
     12 CL        141.5255  146.0873  153.8768 Cl      1  UNL1       -0.0828
     13 C         140.0562  146.5591  155.9669 C.2     1  UNL1       -0.0249
     14 C         139.1198  147.3736  155.1246 C.3     1  UNL1        0.0277
     15 C         139.7898  146.3877  157.4330 C.3     1  UNL1        0.1006
     16 C         140.7263  145.5731  158.2753 C.2     1  UNL1        0.2171
     17 N         140.7226  145.2305  159.7356 N.2     1  UNL1       -0.0389
     18 C         143.4707  142.0985  165.3454 C.3     1  UNL1        0.0970
     19 C         142.4850  141.2809  166.1263 C.3     1  UNL1        0.1264
     20 C         138.4173  141.9212  164.3115 C.ar    1  UNL1        0.1593
     21 C         137.7016  140.7792  163.6532 C.ar    1  UNL1        0.1357
     22 N         138.3418  139.4237  163.5997 N.ar    1  UNL1       -0.2392
     23 C         139.6977  139.2103  164.2046 C.ar    1  UNL1        0.0975
     24 C         140.3379  137.8548  164.1512 C.ar    1  UNL1        0.0255
     25 C         141.6937  137.6414  164.7561 C.ar    1  UNL1        0.0623
     26 C         142.4095  138.7834  165.4145 C.ar    1  UNL1        0.2611
     27 O         143.7654  138.5700  166.0194 O.2     1  UNL1       -0.2670
     28 N         141.7693  140.1389  165.4680 N.ar    1  UNL1       -0.2926
     29 C         140.4134  140.3523  164.8630 C.ar    1  UNL1        0.0832
     30 C         139.7732  141.7078  164.9165 C.ar    1  UNL1        0.0573
     31 C         137.7691  144.1510  163.1462 C.3     1  UNL1        0.2525
     32 O         137.7771  143.2767  164.3650 O.3     1  UNL1       -0.4698
@<TRIPOS>BOND
     1    31    32    1
     2    32    20    1
     3    20    21   ar
     4    21    22   ar
     5    22    23   ar
     6    23    24   ar
     7    24    25   ar
     8    25    26   ar
     9    26    27    2
    10    26    28   ar
    11    28    19    1
    12    19    18    1
    13    18     1    1
    14     1     2    1
    15     2     3    1
    16     3     4    1
    17     4     7    1
    18     7     8    2
    19     8     9    1
    20     9    10    2
    21    10    11    1
    22    11    12    1
    23    11    13    2
    24    13    14    1
    25    13    15    1
    26    15    16    1
    27    16    17    2
    28     4     5    1
    29     5     6    1
    30    28    29   ar
    31    29    30   ar
    32    30    20   ar
    33    29    23   ar
    34     6     1    1
    35    17     7    1
    36    16     9    1
@<TRIPOS>MOLECULE
*****
 32 36 0 0 0
SMALL
GASTEIGER

@<TRIPOS>ATOM
      1 N         142.5200  142.7406  164.8600 N.3     1  UNL1       -0.2710
      2 C         141.1722  143.2581  164.4531 C.3     1  UNL1        0.0728
      3 C         140.9476  143.7458  163.0525 C.3     1  UNL1        0.0298
      4 C         142.0708  143.7159  162.0588 C.3     1  UNL1        0.1147
      5 C         143.4186  143.1984  162.4658 C.3     1  UNL1        0.0298
      6 C         143.6432  142.7107  163.8663 C.3     1  UNL1        0.0728
      7 C         141.8463  144.2036  160.6582 C.2     1  UNL1        0.3507
      8 N         142.6608  143.8331  159.4543 N.2     1  UNL1       -0.0350
      9 C         142.0857  144.5479  158.2676 C.2     1  UNL1        0.2326
     10 C         142.4762  144.5641  156.8194 C.2     1  UNL1        0.0609
     11 C         141.6967  145.3927  155.8417 C.2     1  UNL1        0.0540
     12 CL        142.0872  145.4089  154.3935 Cl      1  UNL1       -0.0828
     13 C         140.5268  146.2050  156.3121 C.2     1  UNL1       -0.0249
     14 C         139.7474  147.0335  155.3344 C.3     1  UNL1        0.0277
     15 C         140.1363  146.1888  157.7603 C.3     1  UNL1        0.1006
     16 C         140.9157  145.3603  158.7380 C.2     1  UNL1        0.2171
     17 N         140.7678  145.1475  160.2155 N.2     1  UNL1       -0.0389
     18 C         142.7445  142.2529  166.2607 C.3     1  UNL1        0.0970
     19 C         142.5660  140.7996  166.5865 C.3     1  UNL1        0.1264
     20 C         142.5141  138.2356  162.8888 C.ar    1  UNL1        0.1593
     21 C         141.2556  137.5257  162.4860 C.ar    1  UNL1        0.1357
     22 N         140.0144  137.6706  163.3157 N.ar    1  UNL1       -0.2392
     23 C         140.0317  138.5252  164.5483 C.ar    1  UNL1        0.0975
     24 C         138.7905  138.6701  165.3780 C.ar    1  UNL1        0.0255
     25 C         138.8078  139.5247  166.6105 C.ar    1  UNL1        0.0623
     26 C         140.0663  140.2346  167.0134 C.ar    1  UNL1        0.2611
     27 O         140.0836  141.0893  168.2459 O.2     1  UNL1       -0.2670
     28 N         141.3075  140.0898  166.1837 N.ar    1  UNL1       -0.2926
     29 C         141.2902  139.2351  164.9511 C.ar    1  UNL1        0.0832
     30 C         142.5314  139.0902  164.1213 C.ar    1  UNL1        0.0573
     31 C         144.1096  139.1422  161.0497 C.3     1  UNL1        0.2525
     32 O         143.7553  138.0907  162.0591 O.3     1  UNL1       -0.4698
@<TRIPOS>BOND
     1    31    32    1
     2    32    20    1
     3    20    21   ar
     4    21    22   ar
     5    22    23   ar
     6    23    24   ar
     7    24    25   ar
     8    25    26   ar
     9    26    27    2
    10    26    28   ar
    11    28    19    1
    12    19    18    1
    13    18     1    1
    14     1     2    1
    15     2     3    1
    16     3     4    1
    17     4     7    1
    18     7     8    2
    19     8     9    1
    20     9    10    2
    21    10    11    1
    22    11    12    1
    23    11    13    2
    24    13    14    1
    25    13    15    1
    26    15    16    1
    27    16    17    2
    28     4     5    1
    29     5     6    1
    30    28    29   ar
    31    29    30   ar
    32    30    20   ar
    33    29    23   ar
    34     6     1    1
    35    17     7    1
    36    16     9    1
@<TRIPOS>MOLECULE
*****
 32 36 0 0 0
SMALL
GASTEIGER

@<TRIPOS>ATOM
      1 N         140.4698  142.8952  164.7651 N.3     1  UNL1       -0.2710
      2 C         141.6141  143.7776  164.3624 C.3     1  UNL1        0.0728
      3 C         141.7342  144.2493  162.9436 C.3     1  UNL1        0.0298
      4 C         140.7100  143.8387  161.9276 C.3     1  UNL1        0.1147
      5 C         139.5658  142.9563  162.3303 C.3     1  UNL1        0.0298
      6 C         139.4457  142.4846  163.7491 C.3     1  UNL1        0.0728
      7 C         140.8301  144.3104  160.5087 C.2     1  UNL1        0.3507
      8 N         141.8430  143.8418  159.5065 N.2     1  UNL1       -0.0350
      9 C         141.5972  144.5753  158.2213 C.2     1  UNL1        0.2326
     10 C         142.2836  144.5228  156.8886 C.2     1  UNL1        0.0609
     11 C         141.8051  145.3923  155.7638 C.2     1  UNL1        0.0540
     12 CL        142.4914  145.3399  154.4311 Cl      1  UNL1       -0.0828
     13 C         140.6403  146.3143  155.9718 C.2     1  UNL1       -0.0249
     14 C         140.1619  147.1838  154.8471 C.3     1  UNL1        0.0277
     15 C         139.9540  146.3668  157.3046 C.3     1  UNL1        0.1006
     16 C         140.4324  145.4973  158.4293 C.2     1  UNL1        0.2171
     17 N         139.9583  145.3335  159.8430 N.2     1  UNL1       -0.0389
     18 C         140.3498  142.4235  166.1840 C.3     1  UNL1        0.0970
     19 C         140.9430  141.1068  166.5894 C.3     1  UNL1        0.1264
     20 C         144.0876  139.9820  163.5734 C.ar    1  UNL1        0.1593
     21 C         143.8960  138.7740  162.7051 C.ar    1  UNL1        0.1357
     22 N         142.6561  137.9409  162.8421 N.ar    1  UNL1       -0.2392
     23 C         141.6079  138.3158  163.8475 C.ar    1  UNL1        0.0975
     24 C         140.3681  137.4827  163.9845 C.ar    1  UNL1        0.0255
     25 C         139.3199  137.8576  164.9898 C.ar    1  UNL1        0.0623
     26 C         139.5115  139.0657  165.8581 C.ar    1  UNL1        0.2611
     27 O         138.4634  139.4406  166.8634 O.2     1  UNL1       -0.2670
     28 N         140.7514  139.8988  165.7211 N.ar    1  UNL1       -0.2926
     29 C         141.7996  139.5238  164.7157 C.ar    1  UNL1        0.0832
     30 C         143.0394  140.3569  164.5787 C.ar    1  UNL1        0.0573
     31 C         145.3513  142.2175  163.9679 C.3     1  UNL1        0.2525
     32 O         145.3274  140.8151  163.4363 O.3     1  UNL1       -0.4698
@<TRIPOS>BOND
     1    31    32    1
     2    32    20    1
     3    20    21   ar
     4    21    22   ar
     5    22    23   ar
     6    23    24   ar
     7    24    25   ar
     8    25    26   ar
     9    26    27    2
    10    26    28   ar
    11    28    19    1
    12    19    18    1
    13    18     1    1
    14     1     2    1
    15     2     3    1
    16     3     4    1
    17     4     7    1
    18     7     8    2
    19     8     9    1
    20     9    10    2
    21    10    11    1
    22    11    12    1
    23    11    13    2
    24    13    14    1
    25    13    15    1
    26    15    16    1
    27    16    17    2
    28     4     5    1
    29     5     6    1
    30    28    29   ar
    31    29    30   ar
    32    30    20   ar
    33    29    23   ar
    34     6     1    1
    35    17     7    1
    36    16     9    1
@<TRIPOS>MOLECULE
*****
 32 36 0 0 0
SMALL
GASTEIGER

@<TRIPOS>ATOM
      1 N         140.8331  143.4830  164.3997 N.3     1  UNL1       -0.2710
      2 C         139.9578  142.7792  163.4055 C.3     1  UNL1        0.0728
      3 C         140.0014  143.1710  161.9583 C.3     1  UNL1        0.0298
      4 C         140.9202  144.2666  161.5053 C.3     1  UNL1        0.1147
      5 C         141.7955  144.9705  162.4995 C.3     1  UNL1        0.0298
      6 C         141.7520  144.5786  163.9467 C.3     1  UNL1        0.0728
      7 C         140.9638  144.6585  160.0580 C.2     1  UNL1        0.3507
      8 N         140.0332  145.6168  159.3756 N.2     1  UNL1       -0.0350
      9 C         140.4399  145.7114  157.9349 C.2     1  UNL1        0.2326
     10 C         139.8867  146.5007  156.7855 C.2     1  UNL1        0.0609
     11 C         140.5155  146.3901  155.4281 C.2     1  UNL1        0.0540
     12 CL        139.9623  147.1794  154.2788 Cl      1  UNL1       -0.0828
     13 C         141.6974  145.4903  155.2201 C.2     1  UNL1       -0.0249
     14 C         142.3261  145.3797  153.8628 C.3     1  UNL1        0.0277
     15 C         142.2506  144.7010  156.3695 C.3     1  UNL1        0.1006
     16 C         141.6219  144.8116  157.7268 C.2     1  UNL1        0.2171
     17 N         141.9456  144.1608  159.0390 N.2     1  UNL1       -0.0389
     18 C         140.7895  143.0911  165.8470 C.3     1  UNL1        0.0970
     19 C         141.7747  142.0958  166.3845 C.3     1  UNL1        0.1264
     20 C         140.2138  138.1667  164.8433 C.ar    1  UNL1        0.1593
     21 C         141.0439  137.3482  163.8994 C.ar    1  UNL1        0.1357
     22 N         142.3943  137.8395  163.4692 N.ar    1  UNL1       -0.2392
     23 C         142.9146  139.1492  163.9829 C.ar    1  UNL1        0.0975
     24 C         144.2650  139.6404  163.5527 C.ar    1  UNL1        0.0255
     25 C         144.7853  140.9501  164.0664 C.ar    1  UNL1        0.0623
     26 C         143.9552  141.7687  165.0104 C.ar    1  UNL1        0.2611
     27 O         144.4755  143.0783  165.5241 O.2     1  UNL1       -0.2670
     28 N         142.6048  141.2774  165.4406 N.ar    1  UNL1       -0.2926
     29 C         142.0845  139.9676  164.9268 C.ar    1  UNL1        0.0832
     30 C         140.7341  139.4764  165.3570 C.ar    1  UNL1        0.0573
     31 C         138.0897  138.4258  166.3167 C.3     1  UNL1        0.2525
     32 O         138.8634  137.6754  165.2735 O.3     1  UNL1       -0.4698
@<TRIPOS>BOND
     1    31    32    1
     2    32    20    1
     3    20    21   ar
     4    21    22   ar
     5    22    23   ar
     6    23    24   ar
     7    24    25   ar
     8    25    26   ar
     9    26    27    2
    10    26    28   ar
    11    28    19    1
    12    19    18    1
    13    18     1    1
    14     1     2    1
    15     2     3    1
    16     3     4    1
    17     4     7    1
    18     7     8    2
    19     8     9    1
    20     9    10    2
    21    10    11    1
    22    11    12    1
    23    11    13    2
    24    13    14    1
    25    13    15    1
    26    15    16    1
    27    16    17    2
    28     4     5    1
    29     5     6    1
    30    28    29   ar
    31    29    30   ar
    32    30    20   ar
    33    29    23   ar
    34     6     1    1
    35    17     7    1
    36    16     9    1
@<TRIPOS>MOLECULE
*****
 32 36 0 0 0
SMALL
GASTEIGER

@<TRIPOS>ATOM
      1 N         141.3753  141.8934  160.7326 N.3     1  UNL1       -0.2710
      2 C         142.5043  141.8266  159.7473 C.3     1  UNL1        0.0728
      3 C         142.6762  140.6115  158.8849 C.3     1  UNL1        0.0298
      4 C         141.7191  139.4631  159.0077 C.3     1  UNL1        0.1147
      5 C         140.5900  139.5299  159.9930 C.3     1  UNL1        0.0298
      6 C         140.4181  140.7450  160.8555 C.3     1  UNL1        0.0728
      7 C         141.8909  138.2479  158.1452 C.2     1  UNL1        0.3507
      8 N         142.9656  137.2111  158.2868 N.2     1  UNL1       -0.0350
      9 C         142.7571  136.1786  157.2188 C.2     1  UNL1        0.2326
     10 C         143.5077  134.9269  156.8727 C.2     1  UNL1        0.0609
     11 C         143.0547  134.0739  155.7249 C.2     1  UNL1        0.0540
     12 CL        143.8053  132.8222  155.3788 Cl      1  UNL1       -0.0828
     13 C         141.8512  134.4727  154.9234 C.2     1  UNL1       -0.0249
     14 C         141.3983  133.6197  153.7757 C.3     1  UNL1        0.0277
     15 C         141.1007  135.7244  155.2695 C.3     1  UNL1        0.1006
     16 C         141.5536  136.5774  156.4172 C.2     1  UNL1        0.2171
     17 N         141.0183  137.8563  156.9898 N.2     1  UNL1       -0.0389
     18 C         141.2034  143.1086  161.5951 C.3     1  UNL1        0.0970
     19 C         141.7641  143.1263  162.9863 C.3     1  UNL1        0.1264
     20 C         141.2993  139.2186  165.1690 C.ar    1  UNL1        0.1593
     21 C         142.5091  138.3963  165.5005 C.ar    1  UNL1        0.1357
     22 N         143.8739  138.8764  165.1045 N.ar    1  UNL1       -0.2392
     23 C         144.0288  140.1790  164.3770 C.ar    1  UNL1        0.0975
     24 C         145.3936  140.6591  163.9810 C.ar    1  UNL1        0.0255
     25 C         145.5486  141.9617  163.2534 C.ar    1  UNL1        0.0623
     26 C         144.3387  142.7841  162.9218 C.ar    1  UNL1        0.2611
     27 O         144.4936  144.0866  162.1943 O.2     1  UNL1       -0.2670
     28 N         142.9739  142.3039  163.3178 N.ar    1  UNL1       -0.2926
     29 C         142.8190  141.0013  164.0454 C.ar    1  UNL1        0.0832
     30 C         141.4542  140.5211  164.4414 C.ar    1  UNL1        0.0573
     31 C         139.1367  137.8862  164.6230 C.3     1  UNL1        0.2525
     32 O         139.9345  138.7384  165.5650 O.3     1  UNL1       -0.4698
@<TRIPOS>BOND
     1    31    32    1
     2    32    20    1
     3    20    21   ar
     4    21    22   ar
     5    22    23   ar
     6    23    24   ar
     7    24    25   ar
     8    25    26   ar
     9    26    27    2
    10    26    28   ar
    11    28    19    1
    12    19    18    1
    13    18     1    1
    14     1     2    1
    15     2     3    1
    16     3     4    1
    17     4     7    1
    18     7     8    2
    19     8     9    1
    20     9    10    2
    21    10    11    1
    22    11    12    1
    23    11    13    2
    24    13    14    1
    25    13    15    1
    26    15    16    1
    27    16    17    2
    28     4     5    1
    29     5     6    1
    30    28    29   ar
    31    29    30   ar
    32    30    20   ar
    33    29    23   ar
    34     6     1    1
    35    17     7    1
    36    16     9    1
@<TRIPOS>MOLECULE
*****
 32 36 0 0 0
SMALL
GASTEIGER

@<TRIPOS>ATOM
      1 N         138.2816  142.6523  162.4812 N.3     1  UNL1       -0.2710
      2 C         138.6478  143.0960  161.0959 C.3     1  UNL1        0.0728
      3 C         139.2143  142.1099  160.1178 C.3     1  UNL1        0.0298
      4 C         139.4146  140.6803  160.5249 C.3     1  UNL1        0.1147
      5 C         139.0484  140.2366  161.9102 C.3     1  UNL1        0.0298
      6 C         138.4819  141.2226  162.8884 C.3     1  UNL1        0.0728
      7 C         139.9811  139.6942  159.5468 C.2     1  UNL1        0.3507
      8 N         141.3886  139.1759  159.5324 N.2     1  UNL1       -0.0350
      9 C         141.5169  138.2146  158.3880 C.2     1  UNL1        0.2326
     10 C         142.6716  137.3986  157.8873 C.2     1  UNL1        0.0609
     11 C         142.4980  136.5067  156.6937 C.2     1  UNL1        0.0540
     12 CL        143.6527  135.6906  156.1931 Cl      1  UNL1       -0.0828
     13 C         141.1698  136.4310  156.0009 C.2     1  UNL1       -0.0249
     14 C         140.9963  135.5391  154.8074 C.3     1  UNL1        0.0277
     15 C         140.0151  137.2470  156.5016 C.3     1  UNL1        0.1006
     16 C         140.1886  138.1389  157.6951 C.2     1  UNL1        0.2171
     17 N         139.2395  139.0533  158.4113 N.2     1  UNL1       -0.0389
     18 C         137.7151  143.6384  163.4594 C.3     1  UNL1        0.0970
     19 C         138.6335  144.4387  164.3346 C.3     1  UNL1        0.1264
     20 C         140.7379  141.4455  166.9540 C.ar    1  UNL1        0.1593
     21 C         142.2232  141.2664  166.8446 C.ar    1  UNL1        0.1357
     22 N         143.0069  142.0851  165.8620 N.ar    1  UNL1       -0.2392
     23 C         142.3055  143.0829  164.9889 C.ar    1  UNL1        0.0975
     24 C         143.0892  143.9016  164.0063 C.ar    1  UNL1        0.0255
     25 C         142.3878  144.8993  163.1332 C.ar    1  UNL1        0.0623
     26 C         140.9025  145.0784  163.2426 C.ar    1  UNL1        0.2611
     27 O         140.2010  146.0762  162.3694 O.2     1  UNL1       -0.2670
     28 N         140.1187  144.2597  164.2251 N.ar    1  UNL1       -0.2926
     29 C         140.8202  143.2619  165.0983 C.ar    1  UNL1        0.0832
     30 C         140.0365  142.4432  166.0809 C.ar    1  UNL1        0.0573
     31 C         140.3917  140.5535  169.3694 C.3     1  UNL1        0.2525
     32 O         139.9542  140.6268  167.9366 O.3     1  UNL1       -0.4698
@<TRIPOS>BOND
     1    31    32    1
     2    32    20    1
     3    20    21   ar
     4    21    22   ar
     5    22    23   ar
     6    23    24   ar
     7    24    25   ar
     8    25    26   ar
     9    26    27    2
    10    26    28   ar
    11    28    19    1
    12    19    18    1
    13    18     1    1
    14     1     2    1
    15     2     3    1
    16     3     4    1
    17     4     7    1
    18     7     8    2
    19     8     9    1
    20     9    10    2
    21    10    11    1
    22    11    12    1
    23    11    13    2
    24    13    14    1
    25    13    15    1
    26    15    16    1
    27    16    17    2
    28     4     5    1
    29     5     6    1
    30    28    29   ar
    31    29    30   ar
    32    30    20   ar
    33    29    23   ar
    34     6     1    1
    35    17     7    1
    36    16     9    1
@<TRIPOS>MOLECULE
*****
 32 36 0 0 0
SMALL
GASTEIGER

@<TRIPOS>ATOM
      1 N         143.1916  141.0911  163.9418 N.3     1  UNL1       -0.2710
      2 C         143.2649  139.5946  163.8693 C.3     1  UNL1        0.0728
      3 C         142.9521  138.8898  162.5827 C.3     1  UNL1        0.0298
      4 C         142.5661  139.6815  161.3686 C.3     1  UNL1        0.1147
      5 C         142.4928  141.1779  161.4410 C.3     1  UNL1        0.0298
      6 C         142.8056  141.8827  162.7276 C.3     1  UNL1        0.0728
      7 C         142.2533  138.9766  160.0819 C.2     1  UNL1        0.3507
      8 N         143.1876  138.0908  159.3121 N.2     1  UNL1       -0.0350
      9 C         142.4630  137.6007  158.0936 C.2     1  UNL1        0.2326
     10 C         142.8831  136.6989  156.9710 C.2     1  UNL1        0.0609
     11 C         141.9212  136.3799  155.8651 C.2     1  UNL1        0.0540
     12 CL        142.3413  135.4781  154.7425 Cl      1  UNL1       -0.0828
     13 C         140.5392  136.9628  155.8818 C.2     1  UNL1       -0.0249
     14 C         139.5773  136.6439  154.7759 C.3     1  UNL1        0.0277
     15 C         140.1191  137.8646  157.0044 C.3     1  UNL1        0.1006
     16 C         141.0809  138.1835  158.1103 C.2     1  UNL1        0.2171
     17 N         140.9514  139.0339  159.3391 N.2     1  UNL1       -0.0389
     18 C         143.5044  141.7959  165.2284 C.3     1  UNL1        0.0970
     19 C         142.4010  142.4256  166.0261 C.3     1  UNL1        0.1264
     20 C         138.7488  139.9212  165.2268 C.ar    1  UNL1        0.1593
     21 C         138.1027  139.1588  166.3454 C.ar    1  UNL1        0.1357
     22 N         138.6741  139.2312  167.7304 N.ar    1  UNL1       -0.2392
     23 C         139.8915  140.0659  167.9969 C.ar    1  UNL1        0.0975
     24 C         140.4628  140.1383  169.3819 C.ar    1  UNL1        0.0255
     25 C         141.6802  140.9731  169.6483 C.ar    1  UNL1        0.0623
     26 C         142.3263  141.7355  168.5297 C.ar    1  UNL1        0.2611
     27 O         143.5437  142.5703  168.7961 O.2     1  UNL1       -0.2670
     28 N         141.7550  141.6632  167.1447 N.ar    1  UNL1       -0.2926
     29 C         140.5375  140.8283  166.8783 C.ar    1  UNL1        0.0832
     30 C         139.9662  140.7560  165.4932 C.ar    1  UNL1        0.0573
     31 C         139.0473  140.1415  162.6554 C.3     1  UNL1        0.2525
     32 O         138.1774  139.8488  163.8418 O.3     1  UNL1       -0.4698
@<TRIPOS>BOND
     1    31    32    1
     2    32    20    1
     3    20    21   ar
     4    21    22   ar
     5    22    23   ar
     6    23    24   ar
     7    24    25   ar
     8    25    26   ar
     9    26    27    2
    10    26    28   ar
    11    28    19    1
    12    19    18    1
    13    18     1    1
    14     1     2    1
    15     2     3    1
    16     3     4    1
    17     4     7    1
    18     7     8    2
    19     8     9    1
    20     9    10    2
    21    10    11    1
    22    11    12    1
    23    11    13    2
    24    13    14    1
    25    13    15    1
    26    15    16    1
    27    16    17    2
    28     4     5    1
    29     5     6    1
    30    28    29   ar
    31    29    30   ar
    32    30    20   ar
    33    29    23   ar
    34     6     1    1
    35    17     7    1
    36    16     9    1
