@<TRIPOS>MOLECULE
*****
 27 29 0 0 0
SMALL
GASTEIGER

@<TRIPOS>ATOM
      1 C         138.1646  144.1686  163.5102 C.3     1  UNL1        0.0896
      2 N         138.5515  143.0008  164.3684 N.3     1  UNL1       -0.2715
      3 C         139.5925  143.1664  165.4355 C.3     1  UNL1        0.0725
      4 C         139.9794  141.9985  166.2936 C.3     1  UNL1        0.0238
      5 C         139.3252  140.6650  166.0846 C.3     1  UNL1        0.0489
      6 C         138.2842  140.4994  165.0176 C.3     1  UNL1        0.0238
      7 C         137.8973  141.6672  164.1594 C.3     1  UNL1        0.0725
      8 C         140.2507  140.3267  167.2156 C.ar    1  UNL1       -0.0202
      9 C         139.7149  140.1999  168.6109 C.ar    1  UNL1       -0.0019
     10 C         140.6404  139.8616  169.7418 C.ar    1  UNL1        0.0293
     11 C         142.1017  139.6502  169.4775 C.ar    1  UNL1        0.1401
     12 F         143.0272  139.3119  170.6084 F       1  UNL1       -0.2042
     13 C         142.6375  139.7770  168.0822 C.ar    1  UNL1        0.0293
     14 C         141.7120  140.1153  166.9513 C.ar    1  UNL1       -0.0019
     15 C         138.9924  139.2139  166.2685 C.3     1  UNL1        0.1467
     16 O         138.8250  138.3254  165.0716 O.3     1  UNL1       -0.3470
     17 C         139.8885  137.3259  164.7249 C.3     1  UNL1        0.1875
     18 C         140.9962  137.7043  163.7870 C.ar    1  UNL1        0.0888
     19 C         142.2224  138.3902  164.3124 C.ar    1  UNL1        0.0211
     20 C         143.3301  138.7686  163.3744 C.ar    1  UNL1        0.0742
     21 C         143.2116  138.4611  161.9110 C.ar    1  UNL1        0.0245
     22 C         141.9854  137.7752  161.3856 C.ar    1  UNL1        0.0985
     23 N         140.8777  137.3968  162.3236 N.ar    1  UNL1       -0.2457
     24 C         144.5564  139.4545  163.8997 C.3     1  UNL1        0.4187
     25 F         145.7826  140.1403  164.4250 F       1  UNL1       -0.1659
     26 F         144.7994  140.0557  162.5471 F       1  UNL1       -0.1659
     27 F         144.3132  138.8531  165.2522 F       1  UNL1       -0.1659
@<TRIPOS>BOND
     1     1     2    1
     2     2     3    1
     3     3     4    1
     4     4     5    1
     5     5    15    1
     6    15    16    1
     7    16    17    1
     8    17    18    1
     9    18    19   ar
    10    19    20   ar
    11    20    24    1
    12    24    25    1
    13    24    26    1
    14    24    27    1
    15    20    21   ar
    16    21    22   ar
    17    22    23   ar
    18     5     8    1
    19     8     9   ar
    20     9    10   ar
    21    10    11   ar
    22    11    12    1
    23    11    13   ar
    24    13    14   ar
    25     5     6    1
    26     6     7    1
    27     7     2    1
    28    23    18   ar
    29    14     8   ar
@<TRIPOS>MOLECULE
*****
 27 29 0 0 0
SMALL
GASTEIGER

@<TRIPOS>ATOM
      1 C         138.9121  144.6939  163.3054 C.3     1  UNL1        0.0896
      2 N         139.8469  143.9199  164.1868 N.3     1  UNL1       -0.2715
      3 C         139.5269  143.7354  165.6406 C.3     1  UNL1        0.0725
      4 C         140.4618  142.9614  166.5221 C.3     1  UNL1        0.0238
      5 C         141.7167  142.3719  165.9497 C.3     1  UNL1        0.0489
      6 C         142.0367  142.5564  164.4960 C.3     1  UNL1        0.0238
      7 C         141.1019  143.3304  163.6145 C.3     1  UNL1        0.0725
      8 C         141.8483  141.9293  167.3769 C.ar    1  UNL1       -0.0202
      9 C         143.1025  142.2299  168.1427 C.ar    1  UNL1       -0.0019
     10 C         143.2343  141.7873  169.5699 C.ar    1  UNL1        0.0293
     11 C         142.1116  141.0441  170.2312 C.ar    1  UNL1        0.1401
     12 F         142.2433  140.6015  171.6584 F       1  UNL1       -0.2042
     13 C         140.8573  140.7435  169.4654 C.ar    1  UNL1        0.0293
     14 C         140.7257  141.1861  168.0383 C.ar    1  UNL1       -0.0019
     15 C         143.0174  141.6287  165.8731 C.3     1  UNL1        0.1467
     16 O         143.3142  140.7566  164.6893 O.3     1  UNL1       -0.3470
     17 C         143.0426  139.2829  164.7566 C.3     1  UNL1        0.1875
     18 C         141.6732  138.7575  164.4427 C.ar    1  UNL1        0.0888
     19 C         140.5928  138.8116  165.4819 C.ar    1  UNL1        0.0211
     20 C         139.2233  138.2862  165.1679 C.ar    1  UNL1        0.0742
     21 C         138.9342  137.7067  163.8150 C.ar    1  UNL1        0.0245
     22 C         140.0147  137.6526  162.7758 C.ar    1  UNL1        0.0985
     23 N         141.3841  138.1780  163.0896 N.ar    1  UNL1       -0.2457
     24 C         138.1428  138.3402  166.2071 C.3     1  UNL1        0.4187
     25 F         137.0624  138.3942  167.2462 F       1  UNL1       -0.1659
     26 F         138.0734  136.8418  166.2127 F       1  UNL1       -0.1659
     27 F         138.2123  139.8386  166.2013 F       1  UNL1       -0.1659
@<TRIPOS>BOND
     1     1     2    1
     2     2     3    1
     3     3     4    1
     4     4     5    1
     5     5    15    1
     6    15    16    1
     7    16    17    1
     8    17    18    1
     9    18    19   ar
    10    19    20   ar
    11    20    24    1
    12    24    25    1
    13    24    26    1
    14    24    27    1
    15    20    21   ar
    16    21    22   ar
    17    22    23   ar
    18     5     8    1
    19     8     9   ar
    20     9    10   ar
    21    10    11   ar
    22    11    12    1
    23    11    13   ar
    24    13    14   ar
    25     5     6    1
    26     6     7    1
    27     7     2    1
    28    23    18   ar
    29    14     8   ar
@<TRIPOS>MOLECULE
*****
 27 29 0 0 0
SMALL
GASTEIGER

@<TRIPOS>ATOM
      1 C         145.5588  141.6061  163.2946 C.3     1  UNL1        0.0896
      2 N         144.4520  141.2209  164.2309 N.3     1  UNL1       -0.2715
      3 C         144.0250  142.1645  165.3160 C.3     1  UNL1        0.0725
      4 C         142.9182  141.7794  166.2523 C.3     1  UNL1        0.0238
      5 C         142.2384  140.4506  166.1035 C.3     1  UNL1        0.0489
      6 C         142.6653  139.5070  165.0185 C.3     1  UNL1        0.0238
      7 C         143.7721  139.8922  164.0822 C.3     1  UNL1        0.0725
      8 C         141.4844  140.9989  167.2787 C.ar    1  UNL1       -0.0202
      9 C         140.9690  140.0708  168.3383 C.ar    1  UNL1       -0.0019
     10 C         140.2150  140.6190  169.5135 C.ar    1  UNL1        0.0293
     11 C         139.9764  142.0953  169.6289 C.ar    1  UNL1        0.1401
     12 F         139.2224  142.6436  170.8040 F       1  UNL1       -0.2042
     13 C         140.4918  143.0235  168.5692 C.ar    1  UNL1        0.0293
     14 C         141.2458  142.4753  167.3941 C.ar    1  UNL1       -0.0019
     15 C         141.2967  139.3122  166.3629 C.3     1  UNL1        0.1467
     16 O         140.4922  138.7330  165.2372 O.3     1  UNL1       -0.3470
     17 C         139.0281  139.0401  165.1261 C.3     1  UNL1        0.1875
     18 C         138.5746  140.2899  164.4316 C.ar    1  UNL1        0.0888
     19 C         138.7653  141.6246  165.0890 C.ar    1  UNL1        0.0211
     20 C         138.3117  142.8743  164.3943 C.ar    1  UNL1        0.0742
     21 C         137.6675  142.7894  163.0424 C.ar    1  UNL1        0.0245
     22 C         137.4767  141.4546  162.3850 C.ar    1  UNL1        0.0985
     23 N         137.9303  140.2048  163.0796 N.ar    1  UNL1       -0.2457
     24 C         138.5024  144.2091  165.0517 C.3     1  UNL1        0.4187
     25 F         138.6932  145.5438  165.7090 F       1  UNL1       -0.1659
     26 F         139.9858  144.0897  164.8635 F       1  UNL1       -0.1659
     27 F         137.0191  144.3284  165.2398 F       1  UNL1       -0.1659
@<TRIPOS>BOND
     1     1     2    1
     2     2     3    1
     3     3     4    1
     4     4     5    1
     5     5    15    1
     6    15    16    1
     7    16    17    1
     8    17    18    1
     9    18    19   ar
    10    19    20   ar
    11    20    24    1
    12    24    25    1
    13    24    26    1
    14    24    27    1
    15    20    21   ar
    16    21    22   ar
    17    22    23   ar
    18     5     8    1
    19     8     9   ar
    20     9    10   ar
    21    10    11   ar
    22    11    12    1
    23    11    13   ar
    24    13    14   ar
    25     5     6    1
    26     6     7    1
    27     7     2    1
    28    23    18   ar
    29    14     8   ar
@<TRIPOS>MOLECULE
*****
 27 29 0 0 0
SMALL
GASTEIGER

@<TRIPOS>ATOM
      1 C         141.7537  141.3441  171.0733 C.3     1  UNL1        0.0896
      2 N         141.7211  141.6952  169.6153 N.3     1  UNL1       -0.2715
      3 C         140.4792  142.2823  169.0128 C.3     1  UNL1        0.0725
      4 C         140.4465  142.6334  167.5549 C.3     1  UNL1        0.0238
      5 C         141.6558  142.3974  166.6994 C.3     1  UNL1        0.0489
      6 C         142.8977  141.8104  167.3018 C.3     1  UNL1        0.0238
      7 C         142.9304  141.4593  168.7598 C.3     1  UNL1        0.0725
      8 C         140.7211  142.9718  165.6764 C.ar    1  UNL1       -0.0202
      9 C         141.2278  143.9609  164.6690 C.ar    1  UNL1       -0.0019
     10 C         140.2932  144.5354  163.6461 C.ar    1  UNL1        0.0293
     11 C         138.8518  144.1206  163.6305 C.ar    1  UNL1        0.1401
     12 F         137.9170  144.6950  162.6076 F       1  UNL1       -0.2042
     13 C         138.3449  143.1315  164.6379 C.ar    1  UNL1        0.0293
     14 C         139.2797  142.5571  165.6609 C.ar    1  UNL1       -0.0019
     15 C         142.5405  142.3610  165.4886 C.3     1  UNL1        0.1467
     16 O         143.3027  141.1132  165.1539 O.3     1  UNL1       -0.3470
     17 C         142.8191  140.2101  164.0581 C.3     1  UNL1        0.1875
     18 C         141.3500  139.9620  163.8843 C.ar    1  UNL1        0.0888
     19 C         140.5871  139.2093  164.9338 C.ar    1  UNL1        0.0211
     20 C         139.1180  138.9613  164.7599 C.ar    1  UNL1        0.0742
     21 C         138.4118  139.4659  163.5366 C.ar    1  UNL1        0.0245
     22 C         139.1747  140.2186  162.4870 C.ar    1  UNL1        0.0985
     23 N         140.6438  140.4667  162.6609 N.ar    1  UNL1       -0.2457
     24 C         138.3550  138.2086  165.8094 C.3     1  UNL1        0.4187
     25 F         137.5921  137.4560  166.8589 F       1  UNL1       -0.1659
     26 F         139.0230  136.9354  165.3818 F       1  UNL1       -0.1659
     27 F         137.6871  139.4819  166.2369 F       1  UNL1       -0.1659
@<TRIPOS>BOND
     1     1     2    1
     2     2     3    1
     3     3     4    1
     4     4     5    1
     5     5    15    1
     6    15    16    1
     7    16    17    1
     8    17    18    1
     9    18    19   ar
    10    19    20   ar
    11    20    24    1
    12    24    25    1
    13    24    26    1
    14    24    27    1
    15    20    21   ar
    16    21    22   ar
    17    22    23   ar
    18     5     8    1
    19     8     9   ar
    20     9    10   ar
    21    10    11   ar
    22    11    12    1
    23    11    13   ar
    24    13    14   ar
    25     5     6    1
    26     6     7    1
    27     7     2    1
    28    23    18   ar
    29    14     8   ar
@<TRIPOS>MOLECULE
*****
 27 29 0 0 0
SMALL
GASTEIGER

@<TRIPOS>ATOM
      1 C         141.0856  141.3293  171.3000 C.3     1  UNL1        0.0896
      2 N         141.1931  140.8581  169.8799 N.3     1  UNL1       -0.2715
      3 C         139.9579  140.4683  169.1235 C.3     1  UNL1        0.0725
      4 C         140.0655  139.9971  167.7035 C.3     1  UNL1        0.0238
      5 C         141.4082  139.9158  167.0399 C.3     1  UNL1        0.0489
      6 C         142.6434  140.3056  167.7964 C.3     1  UNL1        0.0238
      7 C         142.5359  140.7767  169.2164 C.3     1  UNL1        0.0725
      8 C         140.5338  139.4404  165.9176 C.ar    1  UNL1       -0.0202
      9 C         139.2232  140.1185  165.6490 C.ar    1  UNL1       -0.0019
     10 C         138.3488  139.6432  164.5268 C.ar    1  UNL1        0.0293
     11 C         138.7851  138.4896  163.6731 C.ar    1  UNL1        0.1401
     12 F         137.9107  138.0142  162.5508 F       1  UNL1       -0.2042
     13 C         140.0958  137.8114  163.9416 C.ar    1  UNL1        0.0293
     14 C         140.9702  138.2868  165.0639 C.ar    1  UNL1       -0.0019
     15 C         142.4473  139.6693  165.9866 C.3     1  UNL1        0.1467
     16 O         143.4471  140.7372  165.6550 O.3     1  UNL1       -0.3470
     17 C         143.3073  141.5282  164.3881 C.3     1  UNL1        0.1875
     18 C         141.9600  142.0327  163.9637 C.ar    1  UNL1        0.0888
     19 C         141.2113  142.9966  164.8358 C.ar    1  UNL1        0.0211
     20 C         139.8640  143.5011  164.4113 C.ar    1  UNL1        0.0742
     21 C         139.2653  143.0417  163.1150 C.ar    1  UNL1        0.0245
     22 C         140.0139  142.0778  162.2430 C.ar    1  UNL1        0.0985
     23 N         141.3613  141.5733  162.6673 N.ar    1  UNL1       -0.2457
     24 C         139.1152  144.4650  165.2834 C.3     1  UNL1        0.4187
     25 F         138.3665  145.4289  166.1553 F       1  UNL1       -0.1659
     26 F         138.5582  145.1362  164.0630 F       1  UNL1       -0.1659
     27 F         139.6722  143.7938  166.5036 F       1  UNL1       -0.1659
@<TRIPOS>BOND
     1     1     2    1
     2     2     3    1
     3     3     4    1
     4     4     5    1
     5     5    15    1
     6    15    16    1
     7    16    17    1
     8    17    18    1
     9    18    19   ar
    10    19    20   ar
    11    20    24    1
    12    24    25    1
    13    24    26    1
    14    24    27    1
    15    20    21   ar
    16    21    22   ar
    17    22    23   ar
    18     5     8    1
    19     8     9   ar
    20     9    10   ar
    21    10    11   ar
    22    11    12    1
    23    11    13   ar
    24    13    14   ar
    25     5     6    1
    26     6     7    1
    27     7     2    1
    28    23    18   ar
    29    14     8   ar
@<TRIPOS>MOLECULE
*****
 27 29 0 0 0
SMALL
GASTEIGER

@<TRIPOS>ATOM
      1 C         142.8339  138.0924  162.5542 C.3     1  UNL1        0.0896
      2 N         142.9103  139.2386  163.5188 N.3     1  UNL1       -0.2715
      3 C         141.9708  139.3000  164.6865 C.3     1  UNL1        0.0725
      4 C         142.0472  140.4462  165.6511 C.3     1  UNL1        0.0238
      5 C         143.0629  141.5310  165.4480 C.3     1  UNL1        0.0489
      6 C         144.0024  141.4696  164.2802 C.3     1  UNL1        0.0238
      7 C         143.9260  140.3234  163.3156 C.3     1  UNL1        0.0725
      8 C         142.3958  142.0292  166.6957 C.ar    1  UNL1       -0.0202
      9 C         140.9365  142.3756  166.6787 C.ar    1  UNL1       -0.0019
     10 C         140.2693  142.8738  167.9263 C.ar    1  UNL1        0.0293
     11 C         141.0615  143.0256  169.1910 C.ar    1  UNL1        0.1401
     12 F         140.3944  143.5238  170.4387 F       1  UNL1       -0.2042
     13 C         142.5209  142.6792  169.2080 C.ar    1  UNL1        0.0293
     14 C         143.1880  142.1810  167.9603 C.ar    1  UNL1       -0.0019
     15 C         143.8470  142.7889  165.6781 C.3     1  UNL1        0.1467
     16 O         144.3599  143.5773  164.5096 O.3     1  UNL1       -0.3470
     17 C         143.6869  144.8589  164.1162 C.3     1  UNL1        0.1875
     18 C         142.3708  144.8249  163.3974 C.ar    1  UNL1        0.0888
     19 C         141.0934  144.7166  164.1762 C.ar    1  UNL1        0.0211
     20 C         139.7774  144.6826  163.4573 C.ar    1  UNL1        0.0742
     21 C         139.7386  144.7570  161.9597 C.ar    1  UNL1        0.0245
     22 C         141.0160  144.8653  161.1808 C.ar    1  UNL1        0.0985
     23 N         142.3321  144.8993  161.8997 N.ar    1  UNL1       -0.2457
     24 C         138.4999  144.5743  164.2361 C.3     1  UNL1        0.4187
     25 F         137.2225  144.4659  165.0148 F       1  UNL1       -0.1659
     26 F         137.7822  144.1285  162.9966 F       1  UNL1       -0.1659
     27 F         139.2177  145.0200  165.4755 F       1  UNL1       -0.1659
@<TRIPOS>BOND
     1     1     2    1
     2     2     3    1
     3     3     4    1
     4     4     5    1
     5     5    15    1
     6    15    16    1
     7    16    17    1
     8    17    18    1
     9    18    19   ar
    10    19    20   ar
    11    20    24    1
    12    24    25    1
    13    24    26    1
    14    24    27    1
    15    20    21   ar
    16    21    22   ar
    17    22    23   ar
    18     5     8    1
    19     8     9   ar
    20     9    10   ar
    21    10    11   ar
    22    11    12    1
    23    11    13   ar
    24    13    14   ar
    25     5     6    1
    26     6     7    1
    27     7     2    1
    28    23    18   ar
    29    14     8   ar
@<TRIPOS>MOLECULE
*****
 27 29 0 0 0
SMALL
GASTEIGER

@<TRIPOS>ATOM
      1 C         141.1231  140.9619  170.9406 C.3     1  UNL1        0.0896
      2 N         141.1658  140.5240  169.5066 N.3     1  UNL1       -0.2715
      3 C         139.8901  140.3519  168.7367 C.3     1  UNL1        0.0725
      4 C         139.9327  139.9140  167.3027 C.3     1  UNL1        0.0238
      5 C         141.2512  139.6481  166.6386 C.3     1  UNL1        0.0489
      6 C         142.5269  139.8202  167.4085 C.3     1  UNL1        0.0238
      7 C         142.4842  140.2581  168.8425 C.3     1  UNL1        0.0725
      8 C         140.3211  139.3475  165.5007 C.ar    1  UNL1       -0.0202
      9 C         139.2228  140.3090  165.1557 C.ar    1  UNL1       -0.0019
     10 C         138.2927  140.0085  164.0179 C.ar    1  UNL1        0.0293
     11 C         138.4610  138.7462  163.2252 C.ar    1  UNL1        0.1401
     12 F         137.5309  138.4456  162.0873 F       1  UNL1       -0.2042
     13 C         139.5593  137.7846  163.5702 C.ar    1  UNL1        0.0293
     14 C         140.4894  138.0853  164.7080 C.ar    1  UNL1       -0.0019
     15 C         142.2466  139.2778  165.5793 C.3     1  UNL1        0.1467
     16 O         143.3550  140.2253  165.2277 O.3     1  UNL1       -0.3470
     17 C         143.3278  140.9590  163.9196 C.3     1  UNL1        0.1875
     18 C         142.8763  142.3886  163.8708 C.ar    1  UNL1        0.0888
     19 C         141.5031  142.7582  164.3482 C.ar    1  UNL1        0.0211
     20 C         141.0518  144.1878  164.2994 C.ar    1  UNL1        0.0742
     21 C         141.9734  145.2478  163.7733 C.ar    1  UNL1        0.0245
     22 C         143.3466  144.8783  163.2959 C.ar    1  UNL1        0.0985
     23 N         143.7981  143.4487  163.3447 N.ar    1  UNL1       -0.2457
     24 C         139.6785  144.5574  164.7767 C.3     1  UNL1        0.4187
     25 F         138.3054  144.9270  165.2541 F       1  UNL1       -0.1659
     26 F         139.8278  143.6158  165.9349 F       1  UNL1       -0.1659
     27 F         139.5294  145.4990  163.6186 F       1  UNL1       -0.1659
@<TRIPOS>BOND
     1     1     2    1
     2     2     3    1
     3     3     4    1
     4     4     5    1
     5     5    15    1
     6    15    16    1
     7    16    17    1
     8    17    18    1
     9    18    19   ar
    10    19    20   ar
    11    20    24    1
    12    24    25    1
    13    24    26    1
    14    24    27    1
    15    20    21   ar
    16    21    22   ar
    17    22    23   ar
    18     5     8    1
    19     8     9   ar
    20     9    10   ar
    21    10    11   ar
    22    11    12    1
    23    11    13   ar
    24    13    14   ar
    25     5     6    1
    26     6     7    1
    27     7     2    1
    28    23    18   ar
    29    14     8   ar
@<TRIPOS>MOLECULE
*****
 27 29 0 0 0
SMALL
GASTEIGER

@<TRIPOS>ATOM
      1 C         138.1705  140.2588  157.9592 C.3     1  UNL1        0.0896
      2 N         138.5849  139.7321  159.3012 N.3     1  UNL1       -0.2715
      3 C         137.7590  140.0393  160.5150 C.3     1  UNL1        0.0725
      4 C         138.1733  139.5126  161.8570 C.3     1  UNL1        0.0238
      5 C         139.4135  138.6788  161.9852 C.3     1  UNL1        0.0489
      6 C         140.2394  138.3716  160.7713 C.3     1  UNL1        0.0238
      7 C         139.8251  138.8982  159.4293 C.3     1  UNL1        0.0725
      8 C         138.9641  138.6988  163.4162 C.ar    1  UNL1       -0.0202
      9 C         138.9280  137.4259  164.2088 C.ar    1  UNL1       -0.0019
     10 C         138.4786  137.4458  165.6398 C.ar    1  UNL1        0.0293
     11 C         138.0654  138.7388  166.2780 C.ar    1  UNL1        0.1401
     12 F         137.6160  138.7588  167.7090 F       1  UNL1       -0.2042
     13 C         138.1015  140.0118  165.4855 C.ar    1  UNL1        0.0293
     14 C         138.5509  139.9918  164.0545 C.ar    1  UNL1       -0.0019
     15 C         140.4977  137.8518  162.6103 C.3     1  UNL1        0.1467
     16 O         141.9279  138.2937  162.5139 O.3     1  UNL1       -0.3470
     17 C         142.7070  138.5899  163.7611 C.3     1  UNL1        0.1875
     18 C         142.2122  139.6262  164.7261 C.ar    1  UNL1        0.0888
     19 C         141.8820  139.2399  166.1374 C.ar    1  UNL1        0.0211
     20 C         141.3872  140.2763  167.1023 C.ar    1  UNL1        0.0742
     21 C         141.2227  141.6988  166.6561 C.ar    1  UNL1        0.0245
     22 C         141.5529  142.0851  165.2447 C.ar    1  UNL1        0.0985
     23 N         142.0477  141.0488  164.2797 N.ar    1  UNL1       -0.2457
     24 C         141.0570  139.8900  168.5137 C.3     1  UNL1        0.4187
     25 F         140.7268  139.5038  169.9250 F       1  UNL1       -0.1659
     26 F         142.3429  139.1230  168.6046 F       1  UNL1       -0.1659
     27 F         139.7711  140.6570  168.4227 F       1  UNL1       -0.1659
@<TRIPOS>BOND
     1     1     2    1
     2     2     3    1
     3     3     4    1
     4     4     5    1
     5     5    15    1
     6    15    16    1
     7    16    17    1
     8    17    18    1
     9    18    19   ar
    10    19    20   ar
    11    20    24    1
    12    24    25    1
    13    24    26    1
    14    24    27    1
    15    20    21   ar
    16    21    22   ar
    17    22    23   ar
    18     5     8    1
    19     8     9   ar
    20     9    10   ar
    21    10    11   ar
    22    11    12    1
    23    11    13   ar
    24    13    14   ar
    25     5     6    1
    26     6     7    1
    27     7     2    1
    28    23    18   ar
    29    14     8   ar
@<TRIPOS>MOLECULE
*****
 27 29 0 0 0
SMALL
GASTEIGER

@<TRIPOS>ATOM
      1 C         145.2117  141.9876  162.6374 C.3     1  UNL1        0.0896
      2 N         144.3734  141.1839  163.5867 N.3     1  UNL1       -0.2715
      3 C         143.9407  141.7792  164.8937 C.3     1  UNL1        0.0725
      4 C         143.1024  140.9755  165.8430 C.3     1  UNL1        0.0238
      5 C         142.6969  139.5764  165.4854 C.3     1  UNL1        0.0489
      6 C         143.1296  138.9810  164.1784 C.3     1  UNL1        0.0238
      7 C         143.9679  139.7847  163.2291 C.3     1  UNL1        0.0725
      8 C         142.0446  139.7008  166.8305 C.ar    1  UNL1       -0.0202
      9 C         140.6550  140.2544  166.9417 C.ar    1  UNL1       -0.0019
     10 C         140.0026  140.3789  168.2867 C.ar    1  UNL1        0.0293
     11 C         140.7401  139.9498  169.5204 C.ar    1  UNL1        0.1401
     12 F         140.0878  140.0743  170.8655 F       1  UNL1       -0.2042
     13 C         142.1298  139.3962  169.4092 C.ar    1  UNL1        0.0293
     14 C         142.7820  139.2718  168.0642 C.ar    1  UNL1       -0.0019
     15 C         142.0648  138.2204  165.5949 C.3     1  UNL1        0.1467
     16 O         141.2817  137.6628  164.4434 O.3     1  UNL1       -0.3470
     17 C         139.7822  137.6654  164.4849 C.3     1  UNL1        0.1875
     18 C         139.0084  138.5779  163.5802 C.ar    1  UNL1        0.0888
     19 C         138.7267  139.9897  164.0017 C.ar    1  UNL1        0.0211
     20 C         137.9529  140.9021  163.0969 C.ar    1  UNL1        0.0742
     21 C         137.4608  140.4030  161.7708 C.ar    1  UNL1        0.0245
     22 C         137.7426  138.9912  161.3494 C.ar    1  UNL1        0.0985
     23 N         138.5163  138.0787  162.2541 N.ar    1  UNL1       -0.2457
     24 C         137.6712  142.3140  163.5183 C.3     1  UNL1        0.4187
     25 F         137.3894  143.7257  163.9396 F       1  UNL1       -0.1659
     26 F         137.5181  142.7125  162.0803 F       1  UNL1       -0.1659
     27 F         137.8242  141.9153  164.9562 F       1  UNL1       -0.1659
@<TRIPOS>BOND
     1     1     2    1
     2     2     3    1
     3     3     4    1
     4     4     5    1
     5     5    15    1
     6    15    16    1
     7    16    17    1
     8    17    18    1
     9    18    19   ar
    10    19    20   ar
    11    20    24    1
    12    24    25    1
    13    24    26    1
    14    24    27    1
    15    20    21   ar
    16    21    22   ar
    17    22    23   ar
    18     5     8    1
    19     8     9   ar
    20     9    10   ar
    21    10    11   ar
    22    11    12    1
    23    11    13   ar
    24    13    14   ar
    25     5     6    1
    26     6     7    1
    27     7     2    1
    28    23    18   ar
    29    14     8   ar
