@<TRIPOS>MOLECULE
*****
 28 31 0 0 0
SMALL
GASTEIGER

@<TRIPOS>ATOM
      1 C         139.1710  141.6745  164.6749 C.ar    1  UNL1        0.0681
      2 C         140.0120  141.1494  163.5492 C.ar    1  UNL1        0.0208
      3 C         139.7178  141.5622  162.1375 C.ar    1  UNL1        0.0384
      4 C         138.5826  142.5000  161.8514 C.ar    1  UNL1        0.1386
      5 C         137.7417  143.0251  162.9771 C.ar    1  UNL1        0.0384
      6 C         138.0358  142.6123  164.3888 C.ar    1  UNL1        0.0208
      7 C         138.0373  139.1164  165.7569 C.3     1  UNL1        0.0723
      8 C         138.8984  139.9826  166.6277 C.ar    1  UNL1        0.1268
      9 N         139.1926  139.5698  168.0394 N.ar    1  UNL1       -0.2318
     10 C         140.0537  140.4361  168.9102 C.ar    1  UNL1        0.0872
     11 C         140.3478  140.0232  170.3219 C.ar    1  UNL1        0.0193
     12 C         141.2089  140.8895  171.1926 C.ar    1  UNL1        0.0015
     13 C         141.7758  142.1685  170.6516 C.ar    1  UNL1        0.0003
     14 C         141.4816  142.5814  169.2399 C.ar    1  UNL1        0.0063
     15 C         140.6205  141.7151  168.3692 C.ar    1  UNL1        0.0742
     16 C         140.3263  142.1279  166.9574 C.ar    1  UNL1        0.2669
     17 O         140.8931  143.4070  166.4164 O.2     1  UNL1       -0.2665
     18 N         139.4652  141.2617  166.0867 N.ar    1  UNL1       -0.2626
     19 O         138.2884  142.9128  160.4396 O.3     1  UNL1       -0.4754
     20 C         139.3778  142.8892  159.4088 C.3     1  UNL1        0.2068
     21 C         139.9122  144.1757  158.8527 C.3     1  UNL1        0.0646
     22 C         141.1651  144.7748  159.4196 C.3     1  UNL1        0.0759
     23 N         141.4445  144.6769  160.8901 N.3     1  UNL1       -0.2738
     24 C         142.5113  143.8396  161.5311 C.3     1  UNL1        0.0721
     25 C         142.4323  144.0443  163.0150 C.3     1  UNL1        0.0187
     26 C         141.3166  145.0082  163.2911 C.3     1  UNL1        0.0174
     27 C         140.7061  145.3991  161.9779 C.3     1  UNL1        0.0576
     28 C         139.5587  146.3461  161.7861 C.3     1  UNL1        0.0173
@<TRIPOS>BOND
     1     7     8    1
     2     8     9   ar
     3     9    10   ar
     4    10    11   ar
     5    11    12   ar
     6    12    13   ar
     7    13    14   ar
     8    14    15   ar
     9    15    16   ar
    10    16    17    2
    11    16    18   ar
    12    18     1    1
    13     1     2   ar
    14     2     3   ar
    15     3     4   ar
    16     4    19    1
    17    19    20    1
    18    20    21    1
    19    21    22    1
    20    22    23    1
    21    23    24    1
    22    24    25    1
    23    25    26    1
    24    26    27    1
    25    27    28    1
    26     4     5   ar
    27     5     6   ar
    28    18     8   ar
    29     6     1   ar
    30    15    10   ar
    31    27    23    1
@<TRIPOS>MOLECULE
*****
 28 31 0 0 0
SMALL
GASTEIGER

@<TRIPOS>ATOM
      1 C         143.0846  140.2362  164.8158 C.ar    1  UNL1        0.0681
      2 C         142.0877  139.7367  163.8124 C.ar    1  UNL1        0.0208
      3 C         142.4609  139.6533  162.3620 C.ar    1  UNL1        0.0384
      4 C         143.8309  140.0693  161.9149 C.ar    1  UNL1        0.1386
      5 C         144.8278  140.5687  162.9183 C.ar    1  UNL1        0.0384
      6 C         144.4546  140.6522  164.3687 C.ar    1  UNL1        0.0208
      7 C         143.7947  137.9944  166.6786 C.3     1  UNL1        0.0723
      8 C         143.0664  139.1987  167.1977 C.ar    1  UNL1        0.1268
      9 N         142.6932  139.2821  168.6481 N.ar    1  UNL1       -0.2318
     10 C         141.9650  140.4864  169.1671 C.ar    1  UNL1        0.0872
     11 C         141.5918  140.5698  170.6176 C.ar    1  UNL1        0.0193
     12 C         140.8636  141.7741  171.1365 C.ar    1  UNL1        0.0015
     13 C         140.5085  142.8949  170.2051 C.ar    1  UNL1        0.0003
     14 C         140.8817  142.8116  168.7547 C.ar    1  UNL1        0.0063
     15 C         141.6099  141.6073  168.2357 C.ar    1  UNL1        0.0742
     16 C         141.9831  141.5239  166.7852 C.ar    1  UNL1        0.2669
     17 O         141.6281  142.6447  165.8538 O.2     1  UNL1       -0.2665
     18 N         142.7114  140.3196  166.2662 N.ar    1  UNL1       -0.2626
     19 O         144.2041  139.9858  160.4645 O.3     1  UNL1       -0.4754
     20 C         143.7713  141.0639  159.5155 C.3     1  UNL1        0.2068
     21 C         144.0699  142.5006  159.8260 C.3     1  UNL1        0.0646
     22 C         142.9617  143.4260  160.2329 C.3     1  UNL1        0.0759
     23 N         142.9779  144.0644  161.5902 N.3     1  UNL1       -0.2738
     24 C         144.1542  144.1323  162.5186 C.3     1  UNL1        0.0721
     25 C         143.7240  144.8568  163.7596 C.3     1  UNL1        0.0187
     26 C         142.2819  145.2367  163.5982 C.3     1  UNL1        0.0174
     27 C         141.8208  144.7469  162.2574 C.3     1  UNL1        0.0576
     28 C         140.4442  144.9108  161.6845 C.3     1  UNL1        0.0173
@<TRIPOS>BOND
     1     7     8    1
     2     8     9   ar
     3     9    10   ar
     4    10    11   ar
     5    11    12   ar
     6    12    13   ar
     7    13    14   ar
     8    14    15   ar
     9    15    16   ar
    10    16    17    2
    11    16    18   ar
    12    18     1    1
    13     1     2   ar
    14     2     3   ar
    15     3     4   ar
    16     4    19    1
    17    19    20    1
    18    20    21    1
    19    21    22    1
    20    22    23    1
    21    23    24    1
    22    24    25    1
    23    25    26    1
    24    26    27    1
    25    27    28    1
    26     4     5   ar
    27     5     6   ar
    28    18     8   ar
    29     6     1   ar
    30    15    10   ar
    31    27    23    1
@<TRIPOS>MOLECULE
*****
 28 31 0 0 0
SMALL
GASTEIGER

@<TRIPOS>ATOM
      1 C         140.8883  139.2324  164.5435 C.ar    1  UNL1        0.0681
      2 C         141.0634  140.3765  163.5893 C.ar    1  UNL1        0.0208
      3 C         141.2811  140.1090  162.1295 C.ar    1  UNL1        0.0384
      4 C         141.3238  138.6974  161.6240 C.ar    1  UNL1        0.1386
      5 C         141.1488  137.5534  162.5782 C.ar    1  UNL1        0.0384
      6 C         140.9311  137.8209  164.0380 C.ar    1  UNL1        0.0208
      7 C         138.1252  139.0758  165.7013 C.3     1  UNL1        0.0723
      8 C         139.2890  139.4217  166.5823 C.ar    1  UNL1        0.1268
      9 N         139.0712  139.6892  168.0420 N.ar    1  UNL1       -0.2318
     10 C         140.2350  140.0351  168.9230 C.ar    1  UNL1        0.0872
     11 C         140.0172  140.3026  170.3827 C.ar    1  UNL1        0.0193
     12 C         141.1810  140.6485  171.2636 C.ar    1  UNL1        0.0015
     13 C         142.5626  140.7268  170.6847 C.ar    1  UNL1        0.0003
     14 C         142.7804  140.4593  169.2249 C.ar    1  UNL1        0.0063
     15 C         141.6166  140.1134  168.3441 C.ar    1  UNL1        0.0742
     16 C         141.8344  139.8458  166.8842 C.ar    1  UNL1        0.2669
     17 O         143.2159  139.9241  166.3053 O.2     1  UNL1       -0.2665
     18 N         140.6706  139.5000  166.0034 N.ar    1  UNL1       -0.2626
     19 O         141.5416  138.4299  160.1641 O.3     1  UNL1       -0.4754
     20 C         140.3967  138.5441  159.2018 C.3     1  UNL1        0.2068
     21 C         139.9305  139.8955  158.7478 C.3     1  UNL1        0.0646
     22 C         138.5349  140.3504  159.0569 C.3     1  UNL1        0.0759
     23 N         138.2136  140.9207  160.4064 N.3     1  UNL1       -0.2738
     24 C         138.2605  142.3716  160.7844 C.3     1  UNL1        0.0721
     25 C         137.8649  142.4880  162.2266 C.3     1  UNL1        0.0187
     26 C         137.5734  141.1090  162.7400 C.3     1  UNL1        0.0174
     27 C         137.7889  140.1404  161.6151 C.3     1  UNL1        0.0576
     28 C         137.6110  138.6527  161.6863 C.3     1  UNL1        0.0173
@<TRIPOS>BOND
     1     7     8    1
     2     8     9   ar
     3     9    10   ar
     4    10    11   ar
     5    11    12   ar
     6    12    13   ar
     7    13    14   ar
     8    14    15   ar
     9    15    16   ar
    10    16    17    2
    11    16    18   ar
    12    18     1    1
    13     1     2   ar
    14     2     3   ar
    15     3     4   ar
    16     4    19    1
    17    19    20    1
    18    20    21    1
    19    21    22    1
    20    22    23    1
    21    23    24    1
    22    24    25    1
    23    25    26    1
    24    26    27    1
    25    27    28    1
    26     4     5   ar
    27     5     6   ar
    28    18     8   ar
    29     6     1   ar
    30    15    10   ar
    31    27    23    1
@<TRIPOS>MOLECULE
*****
 28 31 0 0 0
SMALL
GASTEIGER

@<TRIPOS>ATOM
      1 C         139.5141  141.5669  164.5972 C.ar    1  UNL1        0.0681
      2 C         138.1757  142.2295  164.4575 C.ar    1  UNL1        0.0208
      3 C         137.6998  142.6818  163.1088 C.ar    1  UNL1        0.0384
      4 C         138.5624  142.4714  161.8998 C.ar    1  UNL1        0.1386
      5 C         139.9009  141.8088  162.0396 C.ar    1  UNL1        0.0384
      6 C         140.3767  141.3565  163.3882 C.ar    1  UNL1        0.0208
      7 C         138.0890  139.3452  166.0232 C.3     1  UNL1        0.0723
      8 C         139.2774  140.0038  166.6590 C.ar    1  UNL1        0.1268
      9 N         139.7532  139.5515  168.0077 N.ar    1  UNL1       -0.2318
     10 C         140.9415  140.2101  168.6435 C.ar    1  UNL1        0.0872
     11 C         141.4173  139.7578  169.9922 C.ar    1  UNL1        0.0193
     12 C         142.6056  140.4164  170.6279 C.ar    1  UNL1        0.0015
     13 C         143.3181  141.5272  169.9149 C.ar    1  UNL1        0.0003
     14 C         142.8424  141.9795  168.5662 C.ar    1  UNL1        0.0063
     15 C         141.6541  141.3209  167.9305 C.ar    1  UNL1        0.0742
     16 C         141.1782  141.7732  166.5817 C.ar    1  UNL1        0.2669
     17 O         141.8908  142.8840  165.8687 O.2     1  UNL1       -0.2665
     18 N         139.9899  141.1146  165.9460 N.ar    1  UNL1       -0.2626
     19 O         138.0866  142.9237  160.5511 O.3     1  UNL1       -0.4754
     20 C         138.4886  142.1653  159.3209 C.3     1  UNL1        0.2068
     21 C         137.9621  140.7802  159.0882 C.3     1  UNL1        0.0646
     22 C         138.8792  139.5993  159.2082 C.3     1  UNL1        0.0759
     23 N         139.0361  138.9024  160.5271 N.3     1  UNL1       -0.2738
     24 C         137.9466  138.6527  161.5275 C.3     1  UNL1        0.0721
     25 C         138.5471  137.9288  162.6960 C.3     1  UNL1        0.0187
     26 C         140.0078  137.7310  162.4178 C.3     1  UNL1        0.0174
     27 C         140.3100  138.3327  161.0773 C.3     1  UNL1        0.0576
     28 C         141.6507  138.3600  160.4052 C.3     1  UNL1        0.0173
@<TRIPOS>BOND
     1     7     8    1
     2     8     9   ar
     3     9    10   ar
     4    10    11   ar
     5    11    12   ar
     6    12    13   ar
     7    13    14   ar
     8    14    15   ar
     9    15    16   ar
    10    16    17    2
    11    16    18   ar
    12    18     1    1
    13     1     2   ar
    14     2     3   ar
    15     3     4   ar
    16     4    19    1
    17    19    20    1
    18    20    21    1
    19    21    22    1
    20    22    23    1
    21    23    24    1
    22    24    25    1
    23    25    26    1
    24    26    27    1
    25    27    28    1
    26     4     5   ar
    27     5     6   ar
    28    18     8   ar
    29     6     1   ar
    30    15    10   ar
    31    27    23    1
@<TRIPOS>MOLECULE
*****
 28 31 0 0 0
SMALL
GASTEIGER

@<TRIPOS>ATOM
      1 C         139.8606  139.2600  164.8586 C.ar    1  UNL1        0.0681
      2 C         139.1246  140.1551  163.9062 C.ar    1  UNL1        0.0208
      3 C         138.9188  139.7283  162.4830 C.ar    1  UNL1        0.0384
      4 C         139.4490  138.4065  162.0123 C.ar    1  UNL1        0.1386
      5 C         140.1850  137.5114  162.9647 C.ar    1  UNL1        0.0384
      6 C         140.3908  137.9382  164.3879 C.ar    1  UNL1        0.0208
      7 C         137.7718  138.6513  166.9241 C.3     1  UNL1        0.0723
      8 C         139.0220  139.3825  167.3146 C.ar    1  UNL1        0.1268
      9 N         139.2277  139.8093  168.7378 N.ar    1  UNL1       -0.2318
     10 C         140.4779  140.5404  169.1283 C.ar    1  UNL1        0.0872
     11 C         140.6837  140.9672  170.5515 C.ar    1  UNL1        0.0193
     12 C         141.9339  141.6984  170.9419 C.ar    1  UNL1        0.0015
     13 C         142.9783  142.0027  169.9092 C.ar    1  UNL1        0.0003
     14 C         142.7725  141.5759  168.4860 C.ar    1  UNL1        0.0063
     15 C         141.5224  140.8448  168.0956 C.ar    1  UNL1        0.0742
     16 C         141.3166  140.4180  166.6723 C.ar    1  UNL1        0.2669
     17 O         142.3610  140.7223  165.6396 O.2     1  UNL1       -0.2665
     18 N         140.0664  139.6868  166.2819 N.ar    1  UNL1       -0.2626
     19 O         139.2432  137.9797  160.5890 O.3     1  UNL1       -0.4754
     20 C         139.2331  139.0036  159.4930 C.3     1  UNL1        0.2068
     21 C         140.4796  139.2673  158.7014 C.3     1  UNL1        0.0646
     22 C         141.5982  140.0626  159.3065 C.3     1  UNL1        0.0759
     23 N         142.4037  139.4870  160.4333 N.3     1  UNL1       -0.2738
     24 C         143.0779  138.1470  160.4405 C.3     1  UNL1        0.0721
     25 C         143.7673  137.9820  161.7625 C.3     1  UNL1        0.0187
     26 C         143.5191  139.2200  162.5724 C.3     1  UNL1        0.0174
     27 C         142.6763  140.1501  161.7509 C.3     1  UNL1        0.0576
     28 C         142.1914  141.5054  162.1729 C.3     1  UNL1        0.0173
@<TRIPOS>BOND
     1     7     8    1
     2     8     9   ar
     3     9    10   ar
     4    10    11   ar
     5    11    12   ar
     6    12    13   ar
     7    13    14   ar
     8    14    15   ar
     9    15    16   ar
    10    16    17    2
    11    16    18   ar
    12    18     1    1
    13     1     2   ar
    14     2     3   ar
    15     3     4   ar
    16     4    19    1
    17    19    20    1
    18    20    21    1
    19    21    22    1
    20    22    23    1
    21    23    24    1
    22    24    25    1
    23    25    26    1
    24    26    27    1
    25    27    28    1
    26     4     5   ar
    27     5     6   ar
    28    18     8   ar
    29     6     1   ar
    30    15    10   ar
    31    27    23    1
@<TRIPOS>MOLECULE
*****
 28 31 0 0 0
SMALL
GASTEIGER

@<TRIPOS>ATOM
      1 C         140.2909  139.2152  164.9848 C.ar    1  UNL1        0.0681
      2 C         140.8361  137.8523  164.6762 C.ar    1  UNL1        0.0208
      3 C         140.8895  137.3696  163.2570 C.ar    1  UNL1        0.0384
      4 C         140.3977  138.2498  162.1465 C.ar    1  UNL1        0.1386
      5 C         139.8525  139.6127  162.4551 C.ar    1  UNL1        0.0384
      6 C         139.7991  140.0954  163.8743 C.ar    1  UNL1        0.0208
      7 C         137.9372  138.5307  166.7144 C.3     1  UNL1        0.0723
      8 C         139.0607  139.3556  167.2689 C.ar    1  UNL1        0.1268
      9 N         139.0072  139.8382  168.6881 N.ar    1  UNL1       -0.2318
     10 C         140.1307  140.6631  169.2426 C.ar    1  UNL1        0.0872
     11 C         140.0773  141.1457  170.6618 C.ar    1  UNL1        0.0193
     12 C         141.2007  141.9706  171.2162 C.ar    1  UNL1        0.0015
     13 C         142.3776  142.3128  170.3514 C.ar    1  UNL1        0.0003
     14 C         142.4310  141.8302  168.9322 C.ar    1  UNL1        0.0063
     15 C         141.3076  141.0054  168.3778 C.ar    1  UNL1        0.0742
     16 C         141.3610  140.5227  166.9585 C.ar    1  UNL1        0.2669
     17 O         142.5378  140.8650  166.0937 O.2     1  UNL1       -0.2665
     18 N         140.2375  139.6978  166.4041 N.ar    1  UNL1       -0.2626
     19 O         140.4511  137.7672  160.7272 O.3     1  UNL1       -0.4754
     20 C         141.4759  138.3237  159.7838 C.3     1  UNL1        0.2068
     21 C         142.8770  138.5707  160.2591 C.3     1  UNL1        0.0646
     22 C         143.2728  139.9307  160.7529 C.3     1  UNL1        0.0759
     23 N         144.0385  140.0695  162.0352 N.3     1  UNL1       -0.2738
     24 C         144.1795  139.0184  163.0961 C.3     1  UNL1        0.0721
     25 C         145.0258  139.5830  164.1984 C.3     1  UNL1        0.0187
     26 C         145.4079  140.9830  163.8188 C.3     1  UNL1        0.0174
     27 C         144.7976  141.2837  162.4818 C.3     1  UNL1        0.0576
     28 C         144.9243  142.5722  161.7245 C.3     1  UNL1        0.0173
@<TRIPOS>BOND
     1     7     8    1
     2     8     9   ar
     3     9    10   ar
     4    10    11   ar
     5    11    12   ar
     6    12    13   ar
     7    13    14   ar
     8    14    15   ar
     9    15    16   ar
    10    16    17    2
    11    16    18   ar
    12    18     1    1
    13     1     2   ar
    14     2     3   ar
    15     3     4   ar
    16     4    19    1
    17    19    20    1
    18    20    21    1
    19    21    22    1
    20    22    23    1
    21    23    24    1
    22    24    25    1
    23    25    26    1
    24    26    27    1
    25    27    28    1
    26     4     5   ar
    27     5     6   ar
    28    18     8   ar
    29     6     1   ar
    30    15    10   ar
    31    27    23    1
@<TRIPOS>MOLECULE
*****
 28 31 0 0 0
SMALL
GASTEIGER

@<TRIPOS>ATOM
      1 C         139.1388  139.9756  164.9272 C.ar    1  UNL1        0.0681
      2 C         138.0227  140.7450  164.2851 C.ar    1  UNL1        0.0208
      3 C         137.6852  140.5133  162.8421 C.ar    1  UNL1        0.0384
      4 C         138.4638  139.5121  162.0412 C.ar    1  UNL1        0.1386
      5 C         139.5799  138.7427  162.6833 C.ar    1  UNL1        0.0384
      6 C         139.9174  138.9745  164.1263 C.ar    1  UNL1        0.0208
      7 C         137.6571  138.4902  167.0714 C.3     1  UNL1        0.0723
      8 C         138.7355  139.4646  167.4424 C.ar    1  UNL1        0.1268
      9 N         139.0729  139.6964  168.8854 N.ar    1  UNL1       -0.2318
     10 C         140.1513  140.6709  169.2564 C.ar    1  UNL1        0.0872
     11 C         140.4888  140.9026  170.6994 C.ar    1  UNL1        0.0193
     12 C         141.5671  141.8770  171.0703 C.ar    1  UNL1        0.0015
     13 C         142.3080  142.6197  169.9982 C.ar    1  UNL1        0.0003
     14 C         141.9705  142.3880  168.5552 C.ar    1  UNL1        0.0063
     15 C         140.8922  141.4136  168.1843 C.ar    1  UNL1        0.0742
     16 C         140.5547  141.1818  166.7412 C.ar    1  UNL1        0.2669
     17 O         141.2956  141.9245  165.6690 O.2     1  UNL1       -0.2665
     18 N         139.4763  140.2074  166.3703 N.ar    1  UNL1       -0.2626
     19 O         138.1263  139.2804  160.5981 O.3     1  UNL1       -0.4754
     20 C         138.1639  140.4224  159.6263 C.3     1  UNL1        0.2068
     21 C         139.2215  141.4788  159.7510 C.3     1  UNL1        0.0646
     22 C         138.8730  142.8266  160.3095 C.3     1  UNL1        0.0759
     23 N         139.7020  143.4196  161.4099 N.3     1  UNL1       -0.2738
     24 C         141.2006  143.4655  161.4581 C.3     1  UNL1        0.0721
     25 C         141.6028  144.1451  162.7334 C.3     1  UNL1        0.0187
     26 C         140.3529  144.5192  163.4735 C.3     1  UNL1        0.0174
     27 C         139.1781  144.0708  162.6555 C.3     1  UNL1        0.0576
     28 C         137.7331  144.2434  163.0193 C.3     1  UNL1        0.0173
@<TRIPOS>BOND
     1     7     8    1
     2     8     9   ar
     3     9    10   ar
     4    10    11   ar
     5    11    12   ar
     6    12    13   ar
     7    13    14   ar
     8    14    15   ar
     9    15    16   ar
    10    16    17    2
    11    16    18   ar
    12    18     1    1
    13     1     2   ar
    14     2     3   ar
    15     3     4   ar
    16     4    19    1
    17    19    20    1
    18    20    21    1
    19    21    22    1
    20    22    23    1
    21    23    24    1
    22    24    25    1
    23    25    26    1
    24    26    27    1
    25    27    28    1
    26     4     5   ar
    27     5     6   ar
    28    18     8   ar
    29     6     1   ar
    30    15    10   ar
    31    27    23    1
@<TRIPOS>MOLECULE
*****
 28 31 0 0 0
SMALL
GASTEIGER

@<TRIPOS>ATOM
      1 C         139.6493  139.2953  164.9642 C.ar    1  UNL1        0.0681
      2 C         140.2911  138.0237  164.4938 C.ar    1  UNL1        0.0208
      3 C         140.0797  137.5534  163.0852 C.ar    1  UNL1        0.0384
      4 C         139.2266  138.3546  162.1471 C.ar    1  UNL1        0.1386
      5 C         138.5848  139.6262  162.6175 C.ar    1  UNL1        0.0384
      6 C         138.7962  140.0965  164.0260 C.ar    1  UNL1        0.0208
      7 C         137.6788  138.5590  167.1030 C.3     1  UNL1        0.0723
      8 C         138.8754  139.3975  167.4422 C.ar    1  UNL1        0.1268
      9 N         139.0868  139.8678  168.8508 N.ar    1  UNL1       -0.2318
     10 C         140.2835  140.7063  169.1900 C.ar    1  UNL1        0.0872
     11 C         140.4948  141.1765  170.5986 C.ar    1  UNL1        0.0193
     12 C         141.6914  142.0150  170.9377 C.ar    1  UNL1        0.0015
     13 C         142.6767  142.3831  169.8683 C.ar    1  UNL1        0.0003
     14 C         142.4654  141.9128  168.4597 C.ar    1  UNL1        0.0063
     15 C         141.2687  141.0744  168.1206 C.ar    1  UNL1        0.0742
     16 C         141.0573  140.6041  166.7119 C.ar    1  UNL1        0.2669
     17 O         142.0426  140.9722  165.6425 O.2     1  UNL1       -0.2665
     18 N         139.8607  139.7656  166.3728 N.ar    1  UNL1       -0.2626
     19 O         139.0152  137.8842  160.7384 O.3     1  UNL1       -0.4754
     20 C         139.5043  138.7148  159.5891 C.3     1  UNL1        0.2068
     21 C         140.9692  138.7662  159.2708 C.3     1  UNL1        0.0646
     22 C         141.6965  140.0779  159.2954 C.3     1  UNL1        0.0759
     23 N         141.3854  141.0880  160.3598 N.3     1  UNL1       -0.2738
     24 C         140.5147  142.2988  160.1988 C.3     1  UNL1        0.0721
     25 C         140.4816  143.0239  161.5115 C.3     1  UNL1        0.0187
     26 C         141.3319  142.2613  162.4838 C.3     1  UNL1        0.0174
     27 C         141.8905  141.0648  161.7720 C.3     1  UNL1        0.0576
     28 C         142.7954  140.0274  162.3678 C.3     1  UNL1        0.0173
@<TRIPOS>BOND
     1     7     8    1
     2     8     9   ar
     3     9    10   ar
     4    10    11   ar
     5    11    12   ar
     6    12    13   ar
     7    13    14   ar
     8    14    15   ar
     9    15    16   ar
    10    16    17    2
    11    16    18   ar
    12    18     1    1
    13     1     2   ar
    14     2     3   ar
    15     3     4   ar
    16     4    19    1
    17    19    20    1
    18    20    21    1
    19    21    22    1
    20    22    23    1
    21    23    24    1
    22    24    25    1
    23    25    26    1
    24    26    27    1
    25    27    28    1
    26     4     5   ar
    27     5     6   ar
    28    18     8   ar
    29     6     1   ar
    30    15    10   ar
    31    27    23    1
@<TRIPOS>MOLECULE
*****
 28 31 0 0 0
SMALL
GASTEIGER

@<TRIPOS>ATOM
      1 C         139.8878  139.1777  159.7068 C.ar    1  UNL1        0.0681
      2 C         138.9068  138.4663  160.5908 C.ar    1  UNL1        0.0208
      3 C         137.9887  139.2535  161.4781 C.ar    1  UNL1        0.0384
      4 C         138.0517  140.7522  161.4814 C.ar    1  UNL1        0.1386
      5 C         139.0327  141.4636  160.5974 C.ar    1  UNL1        0.0384
      6 C         139.9508  140.6764  159.7101 C.ar    1  UNL1        0.0208
      7 C         142.6245  138.4203  160.6748 C.3     1  UNL1        0.0723
      8 C         142.1743  138.0117  159.3034 C.ar    1  UNL1        0.1268
      9 N         143.0924  137.2245  158.4162 N.ar    1  UNL1       -0.2318
     10 C         142.6422  136.8159  157.0449 C.ar    1  UNL1        0.0872
     11 C         143.5603  136.0286  156.1576 C.ar    1  UNL1        0.0193
     12 C         143.1100  135.6201  154.7864 C.ar    1  UNL1        0.0015
     13 C         141.7417  135.9988  154.3024 C.ar    1  UNL1        0.0003
     14 C         140.8236  136.7861  155.1896 C.ar    1  UNL1        0.0063
     15 C         141.2738  137.1946  156.5609 C.ar    1  UNL1        0.0742
     16 C         140.3557  137.9819  157.4482 C.ar    1  UNL1        0.2669
     17 O         138.9874  138.3606  156.9643 O.2     1  UNL1       -0.2665
     18 N         140.8060  138.3905  158.8195 N.ar    1  UNL1       -0.2626
     19 O         137.1336  141.5395  162.3688 O.3     1  UNL1       -0.4754
     20 C         137.6337  142.7738  163.0590 C.3     1  UNL1        0.2068
     21 C         137.8385  142.7714  164.5449 C.3     1  UNL1        0.0646
     22 C         139.0296  142.0778  165.1367 C.3     1  UNL1        0.0759
     23 N         139.1703  140.5898  165.0106 N.3     1  UNL1       -0.2738
     24 C         138.2502  139.5638  165.6030 C.3     1  UNL1        0.0721
     25 C         138.7670  138.2063  165.2285 C.3     1  UNL1        0.0187
     26 C         140.0065  138.3933  164.4045 C.3     1  UNL1        0.0174
     27 C         140.2557  139.8664  164.2699 C.3     1  UNL1        0.0576
     28 C         141.3910  140.5041  163.5252 C.3     1  UNL1        0.0173
@<TRIPOS>BOND
     1     7     8    1
     2     8     9   ar
     3     9    10   ar
     4    10    11   ar
     5    11    12   ar
     6    12    13   ar
     7    13    14   ar
     8    14    15   ar
     9    15    16   ar
    10    16    17    2
    11    16    18   ar
    12    18     1    1
    13     1     2   ar
    14     2     3   ar
    15     3     4   ar
    16     4    19    1
    17    19    20    1
    18    20    21    1
    19    21    22    1
    20    22    23    1
    21    23    24    1
    22    24    25    1
    23    25    26    1
    24    26    27    1
    25    27    28    1
    26     4     5   ar
    27     5     6   ar
    28    18     8   ar
    29     6     1   ar
    30    15    10   ar
    31    27    23    1
