@<TRIPOS>MOLECULE
*****
 39 43 0 0 0
SMALL
GASTEIGER

@<TRIPOS>ATOM
      1 C         140.9131  141.6454  165.7606 C.3     1  UNL1        0.0762
      2 C         139.9968  143.8230  164.6796 C.ar    1  UNL1        0.1351
      3 C         139.8946  144.7445  163.5005 C.ar    1  UNL1        0.0366
      4 C         140.6064  144.4100  162.2232 C.ar    1  UNL1        0.0030
      5 C         140.5042  145.3316  161.0441 C.ar    1  UNL1        0.0008
      6 C         141.2160  144.9971  159.7669 C.ar    1  UNL1        0.0103
      7 C         142.0301  143.7410  159.6687 C.ar    1  UNL1        0.0684
      8 C         142.1324  142.8195  160.8478 C.ar    1  UNL1        0.0103
      9 C         141.4205  143.1540  162.1250 C.ar    1  UNL1        0.0006
     10 C         141.5227  142.2324  163.3042 C.ar    1  UNL1       -0.0009
     11 C         140.8109  142.5669  164.5814 C.ar    1  UNL1        0.0181
     12 C         138.1734  145.1647  165.9544 C.3     1  UNL1        0.2525
     13 O         139.2849  144.1574  165.9569 O.3     1  UNL1       -0.4717
     14 C         142.7420  143.4065  158.3914 C.1     1  UNL1        0.1004
     15 N         143.4538  143.0720  157.1142 N.1     1  UNL1       -0.1908
     16 C         139.9771  140.4799  165.8849 C.ar    1  UNL1       -0.0135
     17 C         139.2965  140.2007  167.1921 C.ar    1  UNL1       -0.0037
     18 C         138.3604  139.0352  167.3165 C.ar    1  UNL1        0.0020
     19 C         138.1050  138.1489  166.1336 C.ar    1  UNL1        0.0296
     20 C         138.7856  138.4281  164.8263 C.ar    1  UNL1        0.1398
     21 F         138.5301  137.5418  163.6435 F       1  UNL1       -0.2042
     22 C         139.7216  139.5936  164.7020 C.ar    1  UNL1        0.0258
     23 C         141.9513  141.8893  166.8153 C.3     1  UNL1        0.1186
     24 O         141.0057  142.8052  167.5343 O.3     1  UNL1       -0.3819
     25 H         140.7102  143.5040  166.9300 H       1  UNL1        0.2107
     26 C         142.8970  140.9735  166.0963 C.ar    1  UNL1        0.0369
     27 C         142.8441  139.4952  166.3452 C.ar    1  UNL1        0.0010
     28 C         143.7898  138.5793  165.6262 C.ar    1  UNL1       -0.0000
     29 C         144.7882  139.1417  164.6583 C.ar    1  UNL1        0.0031
     30 C         144.8411  140.6200  164.4094 C.ar    1  UNL1        0.0375
     31 C         145.7105  141.4575  163.5192 C.ar    1  UNL1        0.0437
     32 C         145.3023  142.8910  163.6880 C.ar    1  UNL1        0.1796
     33 O         144.1805  142.9394  164.6825 O.2     1  UNL1       -0.4507
     34 C         143.8954  141.5359  165.1285 C.ar    1  UNL1        0.1436
     35 C         142.9896  142.1333  167.8701 C.3     1  UNL1        0.0492
     36 C         142.5723  142.3941  169.2871 C.3     1  UNL1        0.0750
     37 N         141.9090  141.3109  170.0851 N.3     1  UNL1       -0.2702
     38 C         142.4397  139.9089  170.0329 C.3     1  UNL1        0.0897
     39 C         140.7149  141.6297  170.9351 C.3     1  UNL1        0.0897
@<TRIPOS>BOND
     1    12    13    1
     2    13     2    1
     3     2     3   ar
     4     3     4   ar
     5     4     5   ar
     6     5     6   ar
     7     6     7   ar
     8     7    14    1
     9    14    15    3
    10     7     8   ar
    11     8     9   ar
    12     9    10   ar
    13    10    11   ar
    14     1    11    1
    15     1    16    1
    16    16    17   ar
    17    17    18   ar
    18    18    19   ar
    19    19    20   ar
    20    20    21    1
    21    20    22   ar
    22     1    23    1
    23    23    24    1
    24    23    35    1
    25    35    36    1
    26    36    37    1
    27    37    38    1
    28    37    39    1
    29    23    26    1
    30    26    27   ar
    31    27    28   ar
    32    28    29   ar
    33    29    30   ar
    34    30    31   ar
    35    31    32   ar
    36    32    33   ar
    37    33    34   ar
    38    11     2   ar
    39    22    16   ar
    40    34    26   ar
    41     9     4   ar
    42    34    30   ar
    43    24    25    1
@<TRIPOS>MOLECULE
*****
 39 43 0 0 0
SMALL
GASTEIGER

@<TRIPOS>ATOM
      1 C         139.6282  140.6595  164.4098 C.3     1  UNL1        0.0762
      2 C         139.2056  139.8917  166.8556 C.ar    1  UNL1        0.1351
      3 C         139.6046  139.8823  168.3015 C.ar    1  UNL1        0.0366
      4 C         140.8253  140.6313  168.7476 C.ar    1  UNL1        0.0030
      5 C         141.2244  140.6219  170.1935 C.ar    1  UNL1        0.0008
      6 C         142.4450  141.3709  170.6395 C.ar    1  UNL1        0.0103
      7 C         143.2666  142.1293  169.6396 C.ar    1  UNL1        0.0684
      8 C         142.8676  142.1387  168.1937 C.ar    1  UNL1        0.0103
      9 C         141.6470  141.3897  167.7477 C.ar    1  UNL1        0.0006
     10 C         141.2479  141.3991  166.3018 C.ar    1  UNL1       -0.0009
     11 C         140.0272  140.6501  165.8557 C.ar    1  UNL1        0.0181
     12 C         137.3476  138.1363  167.3212 C.3     1  UNL1        0.2525
     13 O         137.9849  139.1427  166.4095 O.3     1  UNL1       -0.4717
     14 C         144.4874  142.8783  170.0857 C.1     1  UNL1        0.1004
     15 N         145.7080  143.6273  170.5318 N.1     1  UNL1       -0.1908
     16 C         139.1394  141.9276  163.7749 C.ar    1  UNL1       -0.0135
     17 C         138.2755  142.8728  164.5560 C.ar    1  UNL1       -0.0037
     18 C         137.7866  144.1409  163.9211 C.ar    1  UNL1        0.0020
     19 C         138.1617  144.4637  162.5051 C.ar    1  UNL1        0.0296
     20 C         139.0257  143.5184  161.7239 C.ar    1  UNL1        0.1398
     21 F         139.4008  143.8412  160.3080 F       1  UNL1       -0.2042
     22 C         139.5145  142.2504  162.3588 C.ar    1  UNL1        0.0258
     23 C         139.7179  139.4009  163.5988 C.3     1  UNL1        0.1186
     24 O         138.2636  139.5209  163.2517 O.3     1  UNL1       -0.3819
     25 H         137.7399  139.5733  164.0665 H       1  UNL1        0.2107
     26 C         141.1722  139.2809  163.9460 C.ar    1  UNL1        0.0369
     27 C         141.6003  138.4155  165.0940 C.ar    1  UNL1        0.0010
     28 C         143.0546  138.2955  165.4411 C.ar    1  UNL1       -0.0000
     29 C         144.0809  139.0408  164.6403 C.ar    1  UNL1        0.0031
     30 C         143.6528  139.9062  163.4923 C.ar    1  UNL1        0.0375
     31 C         144.4306  140.7535  162.5295 C.ar    1  UNL1        0.0437
     32 C         143.4570  141.3972  161.5873 C.ar    1  UNL1        0.1796
     33 O         142.0774  140.9477  161.9678 O.2     1  UNL1       -0.4507
     34 C         142.1984  140.0262  163.1451 C.ar    1  UNL1        0.1436
     35 C         139.8076  138.1422  162.7878 C.3     1  UNL1        0.0492
     36 C         139.0231  138.0120  161.5160 C.3     1  UNL1        0.0750
     37 N         139.3915  138.8383  160.3195 N.3     1  UNL1       -0.2702
     38 C         140.7498  138.6959  159.6991 C.3     1  UNL1        0.0897
     39 C         138.4017  139.8070  159.7435 C.3     1  UNL1        0.0897
@<TRIPOS>BOND
     1    12    13    1
     2    13     2    1
     3     2     3   ar
     4     3     4   ar
     5     4     5   ar
     6     5     6   ar
     7     6     7   ar
     8     7    14    1
     9    14    15    3
    10     7     8   ar
    11     8     9   ar
    12     9    10   ar
    13    10    11   ar
    14     1    11    1
    15     1    16    1
    16    16    17   ar
    17    17    18   ar
    18    18    19   ar
    19    19    20   ar
    20    20    21    1
    21    20    22   ar
    22     1    23    1
    23    23    24    1
    24    23    35    1
    25    35    36    1
    26    36    37    1
    27    37    38    1
    28    37    39    1
    29    23    26    1
    30    26    27   ar
    31    27    28   ar
    32    28    29   ar
    33    29    30   ar
    34    30    31   ar
    35    31    32   ar
    36    32    33   ar
    37    33    34   ar
    38    11     2   ar
    39    22    16   ar
    40    34    26   ar
    41     9     4   ar
    42    34    30   ar
    43    24    25    1
@<TRIPOS>MOLECULE
*****
 39 43 0 0 0
SMALL
GASTEIGER

@<TRIPOS>ATOM
      1 C         141.4904  140.4995  165.9629 C.3     1  UNL1        0.0762
      2 C         143.4203  139.3951  164.6191 C.ar    1  UNL1        0.1351
      3 C         144.0269  138.9961  163.3066 C.ar    1  UNL1        0.0366
      4 C         143.3099  139.3025  162.0250 C.ar    1  UNL1        0.0030
      5 C         143.9165  138.9035  160.7124 C.ar    1  UNL1        0.0008
      6 C         143.1996  139.2099  159.4310 C.ar    1  UNL1        0.0103
      7 C         141.8761  139.9153  159.4621 C.ar    1  UNL1        0.0684
      8 C         141.2696  140.3143  160.7747 C.ar    1  UNL1        0.0103
      9 C         141.9865  140.0079  162.0562 C.ar    1  UNL1        0.0006
     10 C         141.3800  140.4069  163.3688 C.ar    1  UNL1       -0.0009
     11 C         142.0969  140.1005  164.6503 C.ar    1  UNL1        0.0181
     12 C         143.9610  137.7517  166.5574 C.3     1  UNL1        0.2525
     13 O         144.1372  139.0887  165.9007 O.3     1  UNL1       -0.4717
     14 C         141.1592  140.2217  158.1806 C.1     1  UNL1        0.1004
     15 N         140.4423  140.5280  156.8992 N.1     1  UNL1       -0.1908
     16 C         140.2236  139.8479  166.4327 C.ar    1  UNL1       -0.0135
     17 C         139.4896  138.8992  165.5321 C.ar    1  UNL1       -0.0037
     18 C         138.2228  138.2476  166.0019 C.ar    1  UNL1        0.0020
     19 C         137.6900  138.5448  167.3722 C.ar    1  UNL1        0.0296
     20 C         138.4240  139.4936  168.2728 C.ar    1  UNL1        0.1398
     21 F         137.8912  139.7908  169.6431 F       1  UNL1       -0.2042
     22 C         139.6908  140.1452  167.8031 C.ar    1  UNL1        0.0258
     23 C         142.1507  141.5500  166.8057 C.3     1  UNL1        0.1186
     24 O         142.6772  140.4847  167.7211 O.3     1  UNL1       -0.3819
     25 H         141.9395  139.9477  168.0503 H       1  UNL1        0.2107
     26 C         141.6242  142.6153  165.8904 C.ar    1  UNL1        0.0369
     27 C         140.2010  143.0733  166.0129 C.ar    1  UNL1        0.0010
     28 C         139.6745  144.1386  165.0976 C.ar    1  UNL1       -0.0000
     29 C         140.5711  144.7460  164.0597 C.ar    1  UNL1        0.0031
     30 C         141.9942  144.2881  163.9372 C.ar    1  UNL1        0.0375
     31 C         143.1053  144.6993  163.0172 C.ar    1  UNL1        0.0437
     32 C         144.3185  143.8881  163.3639 C.ar    1  UNL1        0.1796
     33 O         143.9572  142.9756  164.4982 O.2     1  UNL1       -0.4507
     34 C         142.5208  143.2227  164.8525 C.ar    1  UNL1        0.1436
     35 C         142.8110  142.6005  167.6486 C.3     1  UNL1        0.0492
     36 C         142.8506  142.4496  169.1404 C.3     1  UNL1        0.0750
     37 N         141.5751  142.4631  169.9298 N.3     1  UNL1       -0.2702
     38 C         141.3286  141.4155  170.9747 C.3     1  UNL1        0.0897
     39 C         140.5463  143.5243  169.6743 C.3     1  UNL1        0.0897
@<TRIPOS>BOND
     1    12    13    1
     2    13     2    1
     3     2     3   ar
     4     3     4   ar
     5     4     5   ar
     6     5     6   ar
     7     6     7   ar
     8     7    14    1
     9    14    15    3
    10     7     8   ar
    11     8     9   ar
    12     9    10   ar
    13    10    11   ar
    14     1    11    1
    15     1    16    1
    16    16    17   ar
    17    17    18   ar
    18    18    19   ar
    19    19    20   ar
    20    20    21    1
    21    20    22   ar
    22     1    23    1
    23    23    24    1
    24    23    35    1
    25    35    36    1
    26    36    37    1
    27    37    38    1
    28    37    39    1
    29    23    26    1
    30    26    27   ar
    31    27    28   ar
    32    28    29   ar
    33    29    30   ar
    34    30    31   ar
    35    31    32   ar
    36    32    33   ar
    37    33    34   ar
    38    11     2   ar
    39    22    16   ar
    40    34    26   ar
    41     9     4   ar
    42    34    30   ar
    43    24    25    1
@<TRIPOS>MOLECULE
*****
 39 43 0 0 0
SMALL
GASTEIGER

@<TRIPOS>ATOM
      1 C         142.0776  141.7399  162.7531 C.3     1  UNL1        0.0762
      2 C         143.3662  142.4105  164.9071 C.ar    1  UNL1        0.1351
      3 C         143.4495  142.4772  166.4033 C.ar    1  UNL1        0.0366
      4 C         142.3276  141.9402  167.2417 C.ar    1  UNL1        0.0030
      5 C         142.4109  142.0070  168.7379 C.ar    1  UNL1        0.0008
      6 C         141.2890  141.4700  169.5762 C.ar    1  UNL1        0.0103
      7 C         140.0837  140.8662  168.9184 C.ar    1  UNL1        0.0684
      8 C         140.0004  140.7994  167.4222 C.ar    1  UNL1        0.0103
      9 C         141.1223  141.3364  166.5839 C.ar    1  UNL1        0.0006
     10 C         141.0390  141.2696  165.0876 C.ar    1  UNL1       -0.0009
     11 C         142.1609  141.8067  164.2493 C.ar    1  UNL1        0.0181
     12 C         145.6115  142.0450  163.6522 C.3     1  UNL1        0.2525
     13 O         144.4881  142.9475  164.0687 O.3     1  UNL1       -0.4717
     14 C         138.9618  140.3292  169.7568 C.1     1  UNL1        0.1004
     15 N         137.8399  139.7921  170.5952 N.1     1  UNL1       -0.1908
     16 C         142.4926  140.4907  162.0338 C.ar    1  UNL1       -0.0135
     17 C         142.7961  139.2438  162.8104 C.ar    1  UNL1       -0.0037
     18 C         143.2111  137.9946  162.0911 C.ar    1  UNL1        0.0020
     19 C         143.3227  137.9924  160.5953 C.ar    1  UNL1        0.0296
     20 C         143.0193  139.2393  159.8187 C.ar    1  UNL1        0.1398
     21 F         143.1309  139.2371  158.3229 F       1  UNL1       -0.2042
     22 C         142.6042  140.4885  160.5379 C.ar    1  UNL1        0.0258
     23 C         141.5792  142.9223  161.9762 C.3     1  UNL1        0.1186
     24 O         142.9877  143.2590  161.5852 O.3     1  UNL1       -0.3819
     25 H         143.5300  143.3576  162.3833 H       1  UNL1        0.2107
     26 C         140.1708  142.5855  162.3671 C.ar    1  UNL1        0.0369
     27 C         139.4553  141.4532  161.6918 C.ar    1  UNL1        0.0010
     28 C         138.0469  141.1165  162.0828 C.ar    1  UNL1       -0.0000
     29 C         137.3539  141.9120  163.1490 C.ar    1  UNL1        0.0031
     30 C         138.0693  143.0443  163.8243 C.ar    1  UNL1        0.0375
     31 C         137.6465  143.9988  164.9014 C.ar    1  UNL1        0.0437
     32 C         138.7936  144.9254  165.1762 C.ar    1  UNL1        0.1796
     33 O         139.9254  144.5437  164.2689 O.2     1  UNL1       -0.4507
     34 C         139.4779  143.3811  163.4334 C.ar    1  UNL1        0.1436
     35 C         141.0809  144.1046  161.1992 C.3     1  UNL1        0.0492
     36 C         141.7649  144.5082  159.9267 C.3     1  UNL1        0.0750
     37 N         141.8263  143.5523  158.7724 N.3     1  UNL1       -0.2702
     38 C         143.1199  143.3381  158.0440 C.3     1  UNL1        0.0897
     39 C         140.5940  142.8106  158.3466 C.3     1  UNL1        0.0897
@<TRIPOS>BOND
     1    12    13    1
     2    13     2    1
     3     2     3   ar
     4     3     4   ar
     5     4     5   ar
     6     5     6   ar
     7     6     7   ar
     8     7    14    1
     9    14    15    3
    10     7     8   ar
    11     8     9   ar
    12     9    10   ar
    13    10    11   ar
    14     1    11    1
    15     1    16    1
    16    16    17   ar
    17    17    18   ar
    18    18    19   ar
    19    19    20   ar
    20    20    21    1
    21    20    22   ar
    22     1    23    1
    23    23    24    1
    24    23    35    1
    25    35    36    1
    26    36    37    1
    27    37    38    1
    28    37    39    1
    29    23    26    1
    30    26    27   ar
    31    27    28   ar
    32    28    29   ar
    33    29    30   ar
    34    30    31   ar
    35    31    32   ar
    36    32    33   ar
    37    33    34   ar
    38    11     2   ar
    39    22    16   ar
    40    34    26   ar
    41     9     4   ar
    42    34    30   ar
    43    24    25    1
@<TRIPOS>MOLECULE
*****
 39 43 0 0 0
SMALL
GASTEIGER

@<TRIPOS>ATOM
      1 C         140.6588  140.7027  162.5759 C.3     1  UNL1        0.0762
      2 C         139.2681  139.7466  164.5512 C.ar    1  UNL1        0.1351
      3 C         138.9888  139.6627  166.0226 C.ar    1  UNL1        0.0366
      4 C         139.8210  140.4511  166.9901 C.ar    1  UNL1        0.0030
      5 C         139.5417  140.3672  168.4615 C.ar    1  UNL1        0.0008
      6 C         140.3738  141.1555  169.4289 C.ar    1  UNL1        0.0103
      7 C         141.4853  142.0278  168.9250 C.ar    1  UNL1        0.0684
      8 C         141.7646  142.1117  167.4537 C.ar    1  UNL1        0.0103
      9 C         140.9324  141.3233  166.4862 C.ar    1  UNL1        0.0006
     10 C         141.2117  141.4072  165.0148 C.ar    1  UNL1       -0.0009
     11 C         140.3796  140.6188  164.0473 C.ar    1  UNL1        0.0181
     12 C         138.8411  137.5634  163.2090 C.3     1  UNL1        0.2525
     13 O         138.4360  138.9582  163.5837 O.3     1  UNL1       -0.4717
     14 C         142.3174  142.8162  169.8925 C.1     1  UNL1        0.1004
     15 N         143.1495  143.6045  170.8600 N.1     1  UNL1       -0.1908
     16 C         141.8351  139.9768  161.9932 C.ar    1  UNL1       -0.0135
     17 C         142.4188  138.7963  162.7113 C.ar    1  UNL1       -0.0037
     18 C         143.5950  138.0704  162.1287 C.ar    1  UNL1        0.0020
     19 C         144.1877  138.5250  160.8279 C.ar    1  UNL1        0.0296
     20 C         143.6040  139.7056  160.1097 C.ar    1  UNL1        0.1398
     21 F         144.1966  140.1602  158.8089 F       1  UNL1       -0.2042
     22 C         142.4277  140.4315  160.6924 C.ar    1  UNL1        0.0258
     23 C         139.7619  141.5123  161.6872 C.3     1  UNL1        0.1186
     24 O         139.3081  140.2576  161.0020 O.3     1  UNL1       -0.3819
     25 H         140.0792  139.7795  160.6588 H       1  UNL1        0.2107
     26 C         140.2157  142.7671  162.3724 C.ar    1  UNL1        0.0369
     27 C         141.5308  143.3885  162.0055 C.ar    1  UNL1        0.0010
     28 C         141.9846  144.6432  162.6907 C.ar    1  UNL1       -0.0000
     29 C         141.1234  145.2767  163.7428 C.ar    1  UNL1        0.0031
     30 C         139.8083  144.6555  164.1098 C.ar    1  UNL1        0.0375
     31 C         138.7536  145.0499  165.1007 C.ar    1  UNL1        0.0437
     32 C         137.6479  144.0388  165.0279 C.ar    1  UNL1        0.1796
     33 O         138.0193  143.0196  163.9920 O.2     1  UNL1       -0.4507
     34 C         139.3545  143.4006  163.4245 C.ar    1  UNL1        0.1436
     35 C         138.8649  142.3220  160.7985 C.3     1  UNL1        0.0492
     36 C         138.6468  141.9062  159.3739 C.3     1  UNL1        0.0750
     37 N         139.7917  141.9206  158.4048 N.3     1  UNL1       -0.2702
     38 C         140.6226  143.1590  158.2438 C.3     1  UNL1        0.0897
     39 C         140.1056  140.6965  157.5967 C.3     1  UNL1        0.0897
@<TRIPOS>BOND
     1    12    13    1
     2    13     2    1
     3     2     3   ar
     4     3     4   ar
     5     4     5   ar
     6     5     6   ar
     7     6     7   ar
     8     7    14    1
     9    14    15    3
    10     7     8   ar
    11     8     9   ar
    12     9    10   ar
    13    10    11   ar
    14     1    11    1
    15     1    16    1
    16    16    17   ar
    17    17    18   ar
    18    18    19   ar
    19    19    20   ar
    20    20    21    1
    21    20    22   ar
    22     1    23    1
    23    23    24    1
    24    23    35    1
    25    35    36    1
    26    36    37    1
    27    37    38    1
    28    37    39    1
    29    23    26    1
    30    26    27   ar
    31    27    28   ar
    32    28    29   ar
    33    29    30   ar
    34    30    31   ar
    35    31    32   ar
    36    32    33   ar
    37    33    34   ar
    38    11     2   ar
    39    22    16   ar
    40    34    26   ar
    41     9     4   ar
    42    34    30   ar
    43    24    25    1
@<TRIPOS>MOLECULE
*****
 39 43 0 0 0
SMALL
GASTEIGER

@<TRIPOS>ATOM
      1 C         141.2052  141.7625  163.5559 C.3     1  UNL1        0.0762
      2 C         140.7232  142.8908  165.8460 C.ar    1  UNL1        0.1351
      3 C         140.7783  142.8637  167.3447 C.ar    1  UNL1        0.0366
      4 C         141.3707  141.6810  168.0522 C.ar    1  UNL1        0.0030
      5 C         141.4258  141.6538  169.5509 C.ar    1  UNL1        0.0008
      6 C         142.0181  140.4712  170.2583 C.ar    1  UNL1        0.0103
      7 C         142.5553  139.3157  169.4669 C.ar    1  UNL1        0.0684
      8 C         142.5002  139.3428  167.9682 C.ar    1  UNL1        0.0103
      9 C         141.9079  140.5255  167.2608 C.ar    1  UNL1        0.0006
     10 C         141.8527  140.5527  165.7620 C.ar    1  UNL1       -0.0009
     11 C         141.2604  141.7353  165.0547 C.ar    1  UNL1        0.0181
     12 C         138.7399  144.5266  165.4704 C.3     1  UNL1        0.2525
     13 O         140.1308  144.0736  165.1386 O.3     1  UNL1       -0.4717
     14 C         143.1477  138.1330  170.1744 C.1     1  UNL1        0.1004
     15 N         143.7401  136.9503  170.8817 N.1     1  UNL1       -0.1908
     16 C         142.4470  142.0491  162.7648 C.ar    1  UNL1       -0.0135
     17 C         142.3393  142.5351  161.3498 C.ar    1  UNL1       -0.0037
     18 C         143.5811  142.8217  160.5587 C.ar    1  UNL1        0.0020
     19 C         144.9305  142.6224  161.1826 C.ar    1  UNL1        0.0296
     20 C         145.0383  142.1364  162.5976 C.ar    1  UNL1        0.1398
     21 F         146.3877  141.9370  163.2215 F       1  UNL1       -0.2042
     22 C         143.7965  141.8497  163.3887 C.ar    1  UNL1        0.0258
     23 C         139.9083  141.5031  162.8483 C.3     1  UNL1        0.1186
     24 O         139.7666  142.9703  162.5703 O.3     1  UNL1       -0.3819
     25 H         139.8094  143.4631  163.4046 H       1  UNL1        0.2107
     26 C         140.0501  140.0360  163.1263 C.ar    1  UNL1        0.0369
     27 C         140.9450  139.1928  162.2670 C.ar    1  UNL1        0.0010
     28 C         141.0868  137.7257  162.5451 C.ar    1  UNL1       -0.0000
     29 C         140.3337  137.1016  163.6824 C.ar    1  UNL1        0.0031
     30 C         139.4388  137.9447  164.5416 C.ar    1  UNL1        0.0375
     31 C         138.5777  137.6117  165.7238 C.ar    1  UNL1        0.0437
     32 C         137.9037  138.8730  166.1764 C.ar    1  UNL1        0.1796
     33 O         138.3483  139.9856  165.2740 O.2     1  UNL1       -0.4507
     34 C         139.2970  139.4119  164.2636 C.ar    1  UNL1        0.1436
     35 C         138.6115  141.2437  162.1407 C.3     1  UNL1        0.0492
     36 C         138.1925  142.1198  160.9974 C.3     1  UNL1        0.0750
     37 N         138.6620  141.8129  159.6062 N.3     1  UNL1       -0.2702
     38 C         138.6891  142.8951  158.5679 C.3     1  UNL1        0.0897
     39 C         139.1044  140.4237  159.2533 C.3     1  UNL1        0.0897
@<TRIPOS>BOND
     1    12    13    1
     2    13     2    1
     3     2     3   ar
     4     3     4   ar
     5     4     5   ar
     6     5     6   ar
     7     6     7   ar
     8     7    14    1
     9    14    15    3
    10     7     8   ar
    11     8     9   ar
    12     9    10   ar
    13    10    11   ar
    14     1    11    1
    15     1    16    1
    16    16    17   ar
    17    17    18   ar
    18    18    19   ar
    19    19    20   ar
    20    20    21    1
    21    20    22   ar
    22     1    23    1
    23    23    24    1
    24    23    35    1
    25    35    36    1
    26    36    37    1
    27    37    38    1
    28    37    39    1
    29    23    26    1
    30    26    27   ar
    31    27    28   ar
    32    28    29   ar
    33    29    30   ar
    34    30    31   ar
    35    31    32   ar
    36    32    33   ar
    37    33    34   ar
    38    11     2   ar
    39    22    16   ar
    40    34    26   ar
    41     9     4   ar
    42    34    30   ar
    43    24    25    1
@<TRIPOS>MOLECULE
*****
 39 43 0 0 0
SMALL
GASTEIGER

@<TRIPOS>ATOM
      1 C         140.4094  141.4180  162.7858 C.3     1  UNL1        0.0762
      2 C         138.8610  139.9466  164.2648 C.ar    1  UNL1        0.1351
      3 C         138.4092  139.4912  165.6207 C.ar    1  UNL1        0.0366
      4 C         139.0541  140.0517  166.8536 C.ar    1  UNL1        0.0030
      5 C         138.6023  139.5963  168.2095 C.ar    1  UNL1        0.0008
      6 C         139.2472  140.1568  169.4423 C.ar    1  UNL1        0.0103
      7 C         140.3438  141.1728  169.3192 C.ar    1  UNL1        0.0684
      8 C         140.7956  141.6282  167.9634 C.ar    1  UNL1        0.0103
      9 C         140.1507  141.0677  166.7306 C.ar    1  UNL1        0.0006
     10 C         140.6025  141.5231  165.3746 C.ar    1  UNL1       -0.0009
     11 C         139.9576  140.9626  164.1418 C.ar    1  UNL1        0.0181
     12 C         138.4750  137.9642  162.6305 C.3     1  UNL1        0.2525
     13 O         138.2161  139.3861  163.0319 O.3     1  UNL1       -0.4717
     14 C         140.9887  141.7333  170.5522 C.1     1  UNL1        0.1004
     15 N         141.6336  142.2939  171.7850 N.1     1  UNL1       -0.1908
     16 C         140.2690  142.8590  162.3934 C.ar    1  UNL1       -0.0135
     17 C         139.3650  143.7648  163.1758 C.ar    1  UNL1       -0.0037
     18 C         139.2247  145.2057  162.7834 C.ar    1  UNL1        0.0020
     19 C         139.9884  145.7409  161.6085 C.ar    1  UNL1        0.0296
     20 C         140.8925  144.8350  160.8260 C.ar    1  UNL1        0.1398
     21 F         141.6562  145.3702  159.6512 F       1  UNL1       -0.2042
     22 C         141.0328  143.3941  161.2185 C.ar    1  UNL1        0.0258
     23 C         141.0014  140.4326  161.8224 C.3     1  UNL1        0.1186
     24 O         139.9042  140.7301  160.8438 O.3     1  UNL1       -0.3819
     25 H         139.0442  140.5839  161.2680 H       1  UNL1        0.2107
     26 C         142.0986  140.1350  162.8009 C.ar    1  UNL1        0.0369
     27 C         141.9921  138.9453  163.7083 C.ar    1  UNL1        0.0010
     28 C         143.0893  138.6478  164.6868 C.ar    1  UNL1       -0.0000
     29 C         144.2930  139.5400  164.7581 C.ar    1  UNL1        0.0031
     30 C         144.3996  140.7296  163.8508 C.ar    1  UNL1        0.0375
     31 C         145.4580  141.7808  163.6940 C.ar    1  UNL1        0.0437
     32 C         145.0150  142.7281  162.6186 C.ar    1  UNL1        0.1796
     33 O         143.6827  142.2623  162.1106 O.2     1  UNL1       -0.4507
     34 C         143.3023  141.0272  162.8721 C.ar    1  UNL1        0.1436
     35 C         141.5934  139.4471  160.8589 C.3     1  UNL1        0.0492
     36 C         141.5097  139.6986  159.3825 C.3     1  UNL1        0.0750
     37 N         142.3552  140.7666  158.7545 N.3     1  UNL1       -0.2702
     38 C         143.8421  140.7592  158.9524 C.3     1  UNL1        0.0897
     39 C         141.7139  141.8420  157.9286 C.3     1  UNL1        0.0897
@<TRIPOS>BOND
     1    12    13    1
     2    13     2    1
     3     2     3   ar
     4     3     4   ar
     5     4     5   ar
     6     5     6   ar
     7     6     7   ar
     8     7    14    1
     9    14    15    3
    10     7     8   ar
    11     8     9   ar
    12     9    10   ar
    13    10    11   ar
    14     1    11    1
    15     1    16    1
    16    16    17   ar
    17    17    18   ar
    18    18    19   ar
    19    19    20   ar
    20    20    21    1
    21    20    22   ar
    22     1    23    1
    23    23    24    1
    24    23    35    1
    25    35    36    1
    26    36    37    1
    27    37    38    1
    28    37    39    1
    29    23    26    1
    30    26    27   ar
    31    27    28   ar
    32    28    29   ar
    33    29    30   ar
    34    30    31   ar
    35    31    32   ar
    36    32    33   ar
    37    33    34   ar
    38    11     2   ar
    39    22    16   ar
    40    34    26   ar
    41     9     4   ar
    42    34    30   ar
    43    24    25    1
@<TRIPOS>MOLECULE
*****
 39 43 0 0 0
SMALL
GASTEIGER

@<TRIPOS>ATOM
      1 C         141.6410  142.2466  163.0712 C.3     1  UNL1        0.0762
      2 C         143.0076  142.6098  165.2508 C.ar    1  UNL1        0.1351
      3 C         143.1329  142.4896  166.7407 C.ar    1  UNL1        0.0366
      4 C         142.0169  141.8861  167.5410 C.ar    1  UNL1        0.0030
      5 C         142.1422  141.7660  169.0309 C.ar    1  UNL1        0.0008
      6 C         141.0262  141.1625  169.8311 C.ar    1  UNL1        0.0103
      7 C         139.7849  140.6792  169.1415 C.ar    1  UNL1        0.0684
      8 C         139.6596  140.7993  167.6516 C.ar    1  UNL1        0.0103
      9 C         140.7756  141.4028  166.8514 C.ar    1  UNL1        0.0006
     10 C         140.6503  141.5230  165.3614 C.ar    1  UNL1       -0.0009
     11 C         141.7663  142.1265  164.5612 C.ar    1  UNL1        0.0181
     12 C         144.0912  144.6711  164.0990 C.3     1  UNL1        0.2525
     13 O         144.1236  143.2132  164.4505 O.3     1  UNL1       -0.4717
     14 C         138.6689  140.0757  169.9418 C.1     1  UNL1        0.1004
     15 N         137.5530  139.4722  170.7421 N.1     1  UNL1       -0.1908
     16 C         141.0518  143.4861  162.4657 C.ar    1  UNL1       -0.0135
     17 C         139.9506  144.2168  163.1751 C.ar    1  UNL1       -0.0037
     18 C         139.3614  145.4563  162.5695 C.ar    1  UNL1        0.0020
     19 C         139.8734  145.9649  161.2546 C.ar    1  UNL1        0.0296
     20 C         140.9746  145.2341  160.5451 C.ar    1  UNL1        0.1398
     21 F         141.4866  145.7427  159.2302 F       1  UNL1       -0.2042
     22 C         141.5638  143.9947  161.1506 C.ar    1  UNL1        0.0258
     23 C         142.1049  141.1274  162.1868 C.3     1  UNL1        0.1186
     24 O         143.4840  141.7170  162.1641 O.3     1  UNL1       -0.3819
     25 H         143.4382  142.6348  161.8536 H       1  UNL1        0.2107
     26 C         140.7259  140.5379  162.2096 C.ar    1  UNL1        0.0369
     27 C         139.6439  141.1276  161.3542 C.ar    1  UNL1        0.0010
     28 C         138.2648  140.5380  161.3769 C.ar    1  UNL1       -0.0000
     29 C         137.9677  139.3587  162.2549 C.ar    1  UNL1        0.0031
     30 C         139.0496  138.7690  163.1103 C.ar    1  UNL1        0.0375
     31 C         139.0544  137.6155  164.0691 C.ar    1  UNL1        0.0437
     32 C         140.4364  137.4921  164.6389 C.ar    1  UNL1        0.1796
     33 O         141.2858  138.5694  164.0324 O.2     1  UNL1       -0.4507
     34 C         140.4287  139.3586  163.0876 C.ar    1  UNL1        0.1436
     35 C         142.5688  140.0082  161.3025 C.3     1  UNL1        0.0492
     36 C         143.5550  140.2789  160.2051 C.3     1  UNL1        0.0750
     37 N         143.2460  141.3048  159.1553 N.3     1  UNL1       -0.2702
     38 C         144.2403  142.3845  158.8461 C.3     1  UNL1        0.0897
     39 C         141.9427  141.2511  158.4148 C.3     1  UNL1        0.0897
@<TRIPOS>BOND
     1    12    13    1
     2    13     2    1
     3     2     3   ar
     4     3     4   ar
     5     4     5   ar
     6     5     6   ar
     7     6     7   ar
     8     7    14    1
     9    14    15    3
    10     7     8   ar
    11     8     9   ar
    12     9    10   ar
    13    10    11   ar
    14     1    11    1
    15     1    16    1
    16    16    17   ar
    17    17    18   ar
    18    18    19   ar
    19    19    20   ar
    20    20    21    1
    21    20    22   ar
    22     1    23    1
    23    23    24    1
    24    23    35    1
    25    35    36    1
    26    36    37    1
    27    37    38    1
    28    37    39    1
    29    23    26    1
    30    26    27   ar
    31    27    28   ar
    32    28    29   ar
    33    29    30   ar
    34    30    31   ar
    35    31    32   ar
    36    32    33   ar
    37    33    34   ar
    38    11     2   ar
    39    22    16   ar
    40    34    26   ar
    41     9     4   ar
    42    34    30   ar
    43    24    25    1
@<TRIPOS>MOLECULE
*****
 39 43 0 0 0
SMALL
GASTEIGER

@<TRIPOS>ATOM
      1 C         141.5370  141.9680  164.1797 C.3     1  UNL1        0.0762
      2 C         143.4588  142.7974  162.6405 C.ar    1  UNL1        0.1351
      3 C         144.1809  142.7550  161.3265 C.ar    1  UNL1        0.0366
      4 C         143.7033  141.8407  160.2374 C.ar    1  UNL1        0.0030
      5 C         144.4254  141.7983  158.9234 C.ar    1  UNL1        0.0008
      6 C         143.9478  140.8841  157.8343 C.ar    1  UNL1        0.0103
      7 C         142.7481  140.0123  158.0594 C.ar    1  UNL1        0.0684
      8 C         142.0260  140.0547  159.3734 C.ar    1  UNL1        0.0103
      9 C         142.5036  140.9689  160.4624 C.ar    1  UNL1        0.0006
     10 C         141.7815  141.0114  161.7765 C.ar    1  UNL1       -0.0009
     11 C         142.2591  141.9256  162.8656 C.ar    1  UNL1        0.0181
     12 C         143.6019  145.1732  163.6824 C.3     1  UNL1        0.2525
     13 O         143.9364  143.7117  163.7296 O.3     1  UNL1       -0.4717
     14 C         142.2705  139.0980  156.9703 C.1     1  UNL1        0.1004
     15 N         141.7929  138.1837  155.8812 N.1     1  UNL1       -0.1908
     16 C         140.1904  142.6221  164.2747 C.ar    1  UNL1       -0.0135
     17 C         139.0542  142.1254  163.4308 C.ar    1  UNL1       -0.0037
     18 C         137.7076  142.7794  163.5258 C.ar    1  UNL1        0.0020
     19 C         137.4973  143.9301  164.4648 C.ar    1  UNL1        0.0296
     20 C         138.6336  144.4268  165.3088 C.ar    1  UNL1        0.1398
     21 F         138.4232  145.5774  166.2477 F       1  UNL1       -0.2042
     22 C         139.9801  143.7728  165.2137 C.ar    1  UNL1        0.0258
     23 C         142.1614  141.3565  165.3987 C.3     1  UNL1        0.1186
     24 O         142.5980  142.7163  165.8572 O.3     1  UNL1       -0.3819
     25 H         143.1278  143.1372  165.1623 H       1  UNL1        0.2107
     26 C         141.7249  139.9967  164.9401 C.ar    1  UNL1        0.0369
     27 C         142.6264  139.1741  164.0679 C.ar    1  UNL1        0.0010
     28 C         142.1898  137.8143  163.6093 C.ar    1  UNL1       -0.0000
     29 C         140.8519  137.2770  164.0229 C.ar    1  UNL1        0.0031
     30 C         139.9504  138.0995  164.8951 C.ar    1  UNL1        0.0375
     31 C         138.5858  137.8360  165.4595 C.ar    1  UNL1        0.0437
     32 C         138.1790  139.0329  166.2669 C.ar    1  UNL1        0.1796
     33 O         139.2921  140.0362  166.2015 O.2     1  UNL1       -0.4507
     34 C         140.3869  139.4594  165.3537 C.ar    1  UNL1        0.1436
     35 C         142.7859  140.7449  166.6177 C.3     1  UNL1        0.0492
     36 C         142.6755  141.4366  167.9441 C.3     1  UNL1        0.0750
     37 N         141.3614  141.4673  168.6669 N.3     1  UNL1       -0.2702
     38 C         140.5844  142.7473  168.7563 C.3     1  UNL1        0.0897
     39 C         140.8244  140.2181  169.3001 C.3     1  UNL1        0.0897
@<TRIPOS>BOND
     1    12    13    1
     2    13     2    1
     3     2     3   ar
     4     3     4   ar
     5     4     5   ar
     6     5     6   ar
     7     6     7   ar
     8     7    14    1
     9    14    15    3
    10     7     8   ar
    11     8     9   ar
    12     9    10   ar
    13    10    11   ar
    14     1    11    1
    15     1    16    1
    16    16    17   ar
    17    17    18   ar
    18    18    19   ar
    19    19    20   ar
    20    20    21    1
    21    20    22   ar
    22     1    23    1
    23    23    24    1
    24    23    35    1
    25    35    36    1
    26    36    37    1
    27    37    38    1
    28    37    39    1
    29    23    26    1
    30    26    27   ar
    31    27    28   ar
    32    28    29   ar
    33    29    30   ar
    34    30    31   ar
    35    31    32   ar
    36    32    33   ar
    37    33    34   ar
    38    11     2   ar
    39    22    16   ar
    40    34    26   ar
    41     9     4   ar
    42    34    30   ar
    43    24    25    1
