@<TRIPOS>MOLECULE
*****
 33 36 0 0 0
SMALL
GASTEIGER

@<TRIPOS>ATOM
      1 C         142.4634  141.3259  164.6235 C.ar    1  UNL1        0.1220
      2 N         142.5087  142.6085  163.8471 N.ar    1  UNL1       -0.2261
      3 C         143.2454  142.6695  162.5419 C.ar    1  UNL1        0.1479
      4 C         143.9369  141.4479  162.0131 C.ar    1  UNL1        0.1330
      5 N         143.8916  140.1653  162.7895 N.ar    1  UNL1       -0.2348
      6 C         143.1548  140.1043  164.0947 C.ar    1  UNL1        0.1533
      7 C         140.7722  142.2657  169.5824 C.2     1  UNL1        0.1255
      8 C         139.7256  141.6391  170.4552 C.2     1  UNL1        0.0331
      9 C         138.9084  140.4915  169.9403 C.2     1  UNL1        0.0040
     10 C         139.1378  139.9705  168.5525 C.2     1  UNL1        0.0155
     11 C         140.1844  140.5972  167.6797 C.2     1  UNL1        0.0699
     12 N         140.6325  140.3006  166.2793 N.2     1  UNL1       -0.2477
     13 C         141.7267  141.2649  165.9287 C.2     1  UNL1        0.0967
     14 C         141.9548  142.1574  167.1124 C.2     1  UNL1        0.0077
     15 C         141.0016  141.7448  168.1947 C.3     1  UNL1        0.1203
     16 C         142.9901  143.1794  170.5804 C.3     1  UNL1        0.2520
     17 O         141.5894  143.4133  170.0974 O.2     1  UNL1       -0.4750
     18 C         143.1096  138.8216  164.8711 C.2     1  UNL1        0.2621
     19 N         141.9751  137.8617  164.6681 N.am    1  UNL1       -0.3240
     20 O         144.1989  138.4990  165.8506 O.2     1  UNL1       -0.2687
     21 H         141.2601  138.0734  164.0252 H       1  UNL1        0.1453
     22 H         141.9454  137.0198  165.1777 H       1  UNL1        0.1453
     23 N         143.2907  143.9522  161.7654 N.pl3   1  UNL1       -0.3170
     24 H         144.1562  144.3775  161.5676 H       1  UNL1        0.1482
     25 C         142.0172  144.5867  161.2905 C.3     1  UNL1        0.0895
     26 C         141.5344  144.3433  159.8913 C.3     1  UNL1        0.0530
     27 C         140.2609  144.9779  159.4163 C.3     1  UNL1        0.1440
     28 O         139.4703  145.8558  160.3405 O.3     1  UNL1       -0.3522
     29 C         139.9531  146.0991  161.7397 C.3     1  UNL1        0.1592
     30 C         141.2265  145.4646  162.2146 C.3     1  UNL1        0.0990
     31 N         141.7093  145.7080  163.6138 N.3     1  UNL1       -0.3189
     32 H         142.5828  145.2033  163.7647 H       1  UNL1        0.1189
     33 H         141.0079  145.3795  164.2775 H       1  UNL1        0.1189
@<TRIPOS>BOND
     1    16    17    1
     2    17     7    1
     3     7     8    2
     4     8     9    1
     5     9    10    2
     6    10    11    1
     7    11    12    2
     8    12    13    1
     9    13     1    1
    10     1     2   ar
    11     2     3   ar
    12     3    23    1
    13    25    23    1
    14    25    26    1
    15    26    27    1
    16    27    28    1
    17    28    29    1
    18    29    30    1
    19    30    31    1
    20     3     4   ar
    21     4     5   ar
    22     5     6   ar
    23     6    18    1
    24    18    19   am
    25    18    20    2
    26    13    14    2
    27    14    15    1
    28    15     7    1
    29    15    11    1
    30     6     1   ar
    31    30    25    1
    32    23    24    1
    33    31    32    1
    34    31    33    1
    35    19    21    1
    36    19    22    1
@<TRIPOS>MOLECULE
*****
 33 36 0 0 0
SMALL
GASTEIGER

@<TRIPOS>ATOM
      1 C         139.9372  140.3586  165.0143 C.ar    1  UNL1        0.1220
      2 N         140.3996  140.4553  166.4379 N.ar    1  UNL1       -0.2261
      3 C         139.5841  139.8378  167.5350 C.ar    1  UNL1        0.1479
      4 C         138.3061  139.1237  167.2085 C.ar    1  UNL1        0.1330
      5 N         137.8436  139.0270  165.7848 N.ar    1  UNL1       -0.2348
      6 C         138.6592  139.6444  164.6877 C.ar    1  UNL1        0.1533
      7 C         143.9399  141.7736  161.8033 C.2     1  UNL1        0.1255
      8 C         144.0333  142.6519  160.5910 C.2     1  UNL1        0.0331
      9 C         142.8075  143.3392  160.0665 C.2     1  UNL1        0.0040
     10 C         141.4883  143.1481  160.7543 C.2     1  UNL1        0.0155
     11 C         141.3949  142.2698  161.9666 C.2     1  UNL1        0.0699
     12 N         140.2405  141.8949  162.8480 N.2     1  UNL1       -0.2477
     13 C         140.7528  140.9760  163.9172 C.2     1  UNL1        0.0967
     14 C         142.2238  140.7830  163.6966 C.2     1  UNL1        0.0077
     15 C         142.6207  141.5825  162.4911 C.3     1  UNL1        0.1203
     16 C         145.8364  141.5936  163.5700 C.3     1  UNL1        0.2520
     17 O         145.1657  141.0864  162.3278 O.2     1  UNL1       -0.4750
     18 C         138.1967  139.5477  163.2641 C.2     1  UNL1        0.2621
     19 N         137.3338  140.6272  162.6808 N.am    1  UNL1       -0.3240
     20 O         138.5971  138.3715  162.4237 O.2     1  UNL1       -0.2687
     21 H         137.0710  141.3991  163.2324 H       1  UNL1        0.1453
     22 H         137.0303  140.5637  161.7464 H       1  UNL1        0.1453
     23 N         140.0466  139.9346  168.9587 N.pl3   1  UNL1       -0.3170
     24 H         139.9000  139.1819  169.5761 H       1  UNL1        0.1482
     25 C         140.7324  141.1781  169.4416 C.3     1  UNL1        0.0895
     26 C         139.9672  142.4639  169.5469 C.3     1  UNL1        0.0530
     27 C         140.6532  143.7075  170.0298 C.3     1  UNL1        0.1440
     28 O         142.1042  143.6651  170.4075 O.3     1  UNL1       -0.3522
     29 C         142.8694  142.3793  170.3023 C.3     1  UNL1        0.1592
     30 C         142.1835  141.1357  169.8193 C.3     1  UNL1        0.0990
     31 N         142.9487  139.8499  169.7141 N.3     1  UNL1       -0.3189
     32 H         142.3312  139.1138  169.3716 H       1  UNL1        0.1189
     33 H         143.3082  139.5919  170.6331 H       1  UNL1        0.1189
@<TRIPOS>BOND
     1    16    17    1
     2    17     7    1
     3     7     8    2
     4     8     9    1
     5     9    10    2
     6    10    11    1
     7    11    12    2
     8    12    13    1
     9    13     1    1
    10     1     2   ar
    11     2     3   ar
    12     3    23    1
    13    25    23    1
    14    25    26    1
    15    26    27    1
    16    27    28    1
    17    28    29    1
    18    29    30    1
    19    30    31    1
    20     3     4   ar
    21     4     5   ar
    22     5     6   ar
    23     6    18    1
    24    18    19   am
    25    18    20    2
    26    13    14    2
    27    14    15    1
    28    15     7    1
    29    15    11    1
    30     6     1   ar
    31    30    25    1
    32    23    24    1
    33    31    32    1
    34    31    33    1
    35    19    21    1
    36    19    22    1
@<TRIPOS>MOLECULE
*****
 33 36 0 0 0
SMALL
GASTEIGER

@<TRIPOS>ATOM
      1 C         142.5014  140.6292  164.9867 C.ar    1  UNL1        0.1220
      2 N         142.3396  140.5535  166.4760 N.ar    1  UNL1       -0.2261
      3 C         142.9139  139.3940  167.2349 C.ar    1  UNL1        0.1479
      4 C         143.6499  138.3102  166.5044 C.ar    1  UNL1        0.1330
      5 N         143.8117  138.3859  165.0151 N.ar    1  UNL1       -0.2348
      6 C         143.2375  139.5454  164.2563 C.ar    1  UNL1        0.1533
      7 C         139.3734  144.6080  163.3377 C.2     1  UNL1        0.1255
      8 C         139.4625  145.5966  162.2132 C.2     1  UNL1        0.0331
      9 C         140.6352  145.5657  161.2784 C.2     1  UNL1        0.0040
     10 C         141.7189  144.5461  161.4682 C.2     1  UNL1        0.0155
     11 C         141.6298  143.5574  162.5928 C.2     1  UNL1        0.0699
     12 N         142.5383  142.4451  163.0256 N.2     1  UNL1       -0.2477
     13 C         141.9272  141.7886  164.2279 C.2     1  UNL1        0.0967
     14 C         140.6409  142.4952  164.5380 C.2     1  UNL1        0.0077
     15 C         140.4571  143.5884  163.5275 C.3     1  UNL1        0.1203
     16 C         138.3943  145.0368  165.7057 C.3     1  UNL1        0.2520
     17 O         138.2007  144.6389  164.2725 O.2     1  UNL1       -0.4750
     18 C         143.3993  139.6210  162.7669 C.2     1  UNL1        0.2621
     19 N         144.6691  140.1588  162.1768 N.am    1  UNL1       -0.3240
     20 O         142.2912  139.1588  161.8677 O.2     1  UNL1       -0.2687
     21 H         145.3963  140.4622  162.7670 H       1  UNL1        0.1453
     22 H         144.7753  140.2085  161.1993 H       1  UNL1        0.1453
     23 N         142.7521  139.3183  168.7242 N.pl3   1  UNL1       -0.3170
     24 H         143.3049  138.6947  169.2484 H       1  UNL1        0.1482
     25 C         141.7480  140.1928  169.4149 C.3     1  UNL1        0.0895
     26 C         140.2817  139.9153  169.2633 C.3     1  UNL1        0.0530
     27 C         139.2775  140.7898  169.9541 C.3     1  UNL1        0.1440
     28 O         139.7397  141.9417  170.7964 O.3     1  UNL1       -0.3522
     29 C         141.2060  142.2191  170.9480 C.3     1  UNL1        0.1592
     30 C         142.2101  141.3447  170.2573 C.3     1  UNL1        0.0990
     31 N         143.6764  141.6222  170.4089 N.3     1  UNL1       -0.3189
     32 H         144.2094  140.9350  169.8758 H       1  UNL1        0.1189
     33 H         143.9338  141.5621  171.3941 H       1  UNL1        0.1189
@<TRIPOS>BOND
     1    16    17    1
     2    17     7    1
     3     7     8    2
     4     8     9    1
     5     9    10    2
     6    10    11    1
     7    11    12    2
     8    12    13    1
     9    13     1    1
    10     1     2   ar
    11     2     3   ar
    12     3    23    1
    13    25    23    1
    14    25    26    1
    15    26    27    1
    16    27    28    1
    17    28    29    1
    18    29    30    1
    19    30    31    1
    20     3     4   ar
    21     4     5   ar
    22     5     6   ar
    23     6    18    1
    24    18    19   am
    25    18    20    2
    26    13    14    2
    27    14    15    1
    28    15     7    1
    29    15    11    1
    30     6     1   ar
    31    30    25    1
    32    23    24    1
    33    31    32    1
    34    31    33    1
    35    19    21    1
    36    19    22    1
@<TRIPOS>MOLECULE
*****
 33 36 0 0 0
SMALL
GASTEIGER

@<TRIPOS>ATOM
      1 C         140.0322  140.1253  164.8907 C.ar    1  UNL1        0.1220
      2 N         140.4892  140.2300  166.3155 N.ar    1  UNL1       -0.2261
      3 C         139.5943  139.7662  167.4263 C.ar    1  UNL1        0.1479
      4 C         138.2422  139.1976  167.1123 C.ar    1  UNL1        0.1330
      5 N         137.7851  139.0929  165.6875 N.ar    1  UNL1       -0.2348
      6 C         138.6801  139.5568  164.5767 C.ar    1  UNL1        0.1533
      7 C         142.9424  143.1192  161.5888 C.2     1  UNL1        0.1255
      8 C         143.7860  142.8137  160.3868 C.2     1  UNL1        0.0331
      9 C         143.9232  141.3992  159.9067 C.2     1  UNL1        0.0040
     10 C         143.2167  140.2903  160.6285 C.2     1  UNL1        0.0155
     11 C         142.3730  140.5958  161.8305 C.2     1  UNL1        0.0699
     12 N         141.5642  139.7176  162.7386 N.2     1  UNL1       -0.2477
     13 C         140.9272  140.5892  163.7799 C.2     1  UNL1        0.0967
     14 C         141.3423  142.0061  163.5155 C.2     1  UNL1        0.0077
     15 C         142.2359  142.0102  162.3107 C.3     1  UNL1        0.1203
     16 C         143.5903  145.0013  163.2584 C.3     1  UNL1        0.2520
     17 O         142.8052  144.5336  162.0690 O.2     1  UNL1       -0.4750
     18 C         138.2230  139.4521  163.1518 C.2     1  UNL1        0.2621
     19 N         137.4474  140.5746  162.5286 N.am    1  UNL1       -0.3240
     20 O         138.5415  138.2249  162.3503 O.2     1  UNL1       -0.2687
     21 H         137.2384  141.3800  163.0547 H       1  UNL1        0.1453
     22 H         137.1474  140.5058  161.5934 H       1  UNL1        0.1453
     23 N         140.0514  139.8709  168.8511 N.pl3   1  UNL1       -0.3170
     24 H         139.7280  139.2254  169.5205 H       1  UNL1        0.1482
     25 C         141.0012  140.9589  169.2560 C.3     1  UNL1        0.0895
     26 C         140.4848  142.3389  169.5372 C.3     1  UNL1        0.0530
     27 C         141.4347  143.4270  169.9421 C.3     1  UNL1        0.1440
     28 O         142.9008  143.1351  170.0659 O.3     1  UNL1       -0.3522
     29 C         143.4171  141.7551  169.7847 C.3     1  UNL1        0.1592
     30 C         142.4673  140.6670  169.3798 C.3     1  UNL1        0.0990
     31 N         142.9836  139.2870  169.0987 N.3     1  UNL1       -0.3189
     32 H         142.2064  138.6796  168.8393 H       1  UNL1        0.1189
     33 H         143.4397  138.9181  169.9331 H       1  UNL1        0.1189
@<TRIPOS>BOND
     1    16    17    1
     2    17     7    1
     3     7     8    2
     4     8     9    1
     5     9    10    2
     6    10    11    1
     7    11    12    2
     8    12    13    1
     9    13     1    1
    10     1     2   ar
    11     2     3   ar
    12     3    23    1
    13    25    23    1
    14    25    26    1
    15    26    27    1
    16    27    28    1
    17    28    29    1
    18    29    30    1
    19    30    31    1
    20     3     4   ar
    21     4     5   ar
    22     5     6   ar
    23     6    18    1
    24    18    19   am
    25    18    20    2
    26    13    14    2
    27    14    15    1
    28    15     7    1
    29    15    11    1
    30     6     1   ar
    31    30    25    1
    32    23    24    1
    33    31    32    1
    34    31    33    1
    35    19    21    1
    36    19    22    1
@<TRIPOS>MOLECULE
*****
 33 36 0 0 0
SMALL
GASTEIGER

@<TRIPOS>ATOM
      1 C         142.1787  137.9740  159.2245 C.ar    1  UNL1        0.1220
      2 N         143.0521  137.0427  158.4373 N.ar    1  UNL1       -0.2261
      3 C         142.8335  136.8762  156.9627 C.ar    1  UNL1        0.1479
      4 C         141.7415  137.6410  156.2753 C.ar    1  UNL1        0.1330
      5 N         140.8681  138.5723  157.0626 N.ar    1  UNL1       -0.2348
      6 C         141.0867  138.7388  158.5372 C.ar    1  UNL1        0.1533
      7 C         144.1491  139.3606  163.9710 C.2     1  UNL1        0.1255
      8 C         143.7255  139.0951  165.3852 C.2     1  UNL1        0.0331
      9 C         142.4995  138.2755  165.6596 C.2     1  UNL1        0.0040
     10 C         141.6972  137.7214  164.5197 C.2     1  UNL1        0.0155
     11 C         142.1208  137.9870  163.1055 C.2     1  UNL1        0.0699
     12 N         141.5341  137.5754  161.7879 N.2     1  UNL1       -0.2477
     13 C         142.3974  138.1406  160.6991 C.2     1  UNL1        0.0967
     14 C         143.5177  138.9015  161.3440 C.2     1  UNL1        0.0077
     15 C         143.3468  138.8066  162.8312 C.3     1  UNL1        0.1203
     16 C         145.2398  141.6066  163.2529 C.3     1  UNL1        0.2520
     17 O         145.3751  140.1802  163.6967 O.2     1  UNL1       -0.4750
     18 C         140.2132  139.6702  159.3244 C.2     1  UNL1        0.2621
     19 N         139.0487  139.1301  160.1003 N.am    1  UNL1       -0.3240
     20 O         140.5044  141.1416  159.3357 O.2     1  UNL1       -0.2687
     21 H         138.8576  138.1643  160.0929 H       1  UNL1        0.1453
     22 H         138.4754  139.7414  160.6170 H       1  UNL1        0.1453
     23 N         143.7070  135.9448  156.1755 N.pl3   1  UNL1       -0.3170
     24 H         144.5924  136.2440  155.8660 H       1  UNL1        0.1482
     25 C         143.2314  134.5577  155.8597 C.3     1  UNL1        0.0895
     26 C         142.7650  134.2220  154.4742 C.3     1  UNL1        0.0530
     27 C         142.2893  132.8348  154.1585 C.3     1  UNL1        0.1440
     28 O         142.2802  131.7834  155.2283 O.3     1  UNL1       -0.3522
     29 C         142.7466  132.1192  156.6138 C.3     1  UNL1        0.1592
     30 C         143.2222  133.5063  156.9296 C.3     1  UNL1        0.0990
     31 N         143.6886  133.8420  158.3151 N.3     1  UNL1       -0.3189
     32 H         143.9738  134.8207  158.3500 H       1  UNL1        0.1189
     33 H         144.4808  133.2481  158.5604 H       1  UNL1        0.1189
@<TRIPOS>BOND
     1    16    17    1
     2    17     7    1
     3     7     8    2
     4     8     9    1
     5     9    10    2
     6    10    11    1
     7    11    12    2
     8    12    13    1
     9    13     1    1
    10     1     2   ar
    11     2     3   ar
    12     3    23    1
    13    25    23    1
    14    25    26    1
    15    26    27    1
    16    27    28    1
    17    28    29    1
    18    29    30    1
    19    30    31    1
    20     3     4   ar
    21     4     5   ar
    22     5     6   ar
    23     6    18    1
    24    18    19   am
    25    18    20    2
    26    13    14    2
    27    14    15    1
    28    15     7    1
    29    15    11    1
    30     6     1   ar
    31    30    25    1
    32    23    24    1
    33    31    32    1
    34    31    33    1
    35    19    21    1
    36    19    22    1
@<TRIPOS>MOLECULE
*****
 33 36 0 0 0
SMALL
GASTEIGER

@<TRIPOS>ATOM
      1 C         140.7256  139.3582  164.7002 C.ar    1  UNL1        0.1220
      2 N         141.8744  138.8675  163.8698 N.ar    1  UNL1       -0.2261
      3 C         141.6135  138.1107  162.6013 C.ar    1  UNL1        0.1479
      4 C         140.2039  137.8446  162.1631 C.ar    1  UNL1        0.1330
      5 N         139.0551  138.3353  162.9934 N.ar    1  UNL1       -0.2348
      6 C         139.3160  139.0921  164.2620 C.ar    1  UNL1        0.1533
      7 C         142.4875  140.8173  169.5065 C.2     1  UNL1        0.1255
      8 C         142.2766  142.0316  170.3615 C.2     1  UNL1        0.0331
      9 C         141.4030  143.1494  169.8743 C.2     1  UNL1        0.0040
     10 C         140.7403  143.0528  168.5322 C.2     1  UNL1        0.0155
     11 C         140.9511  141.8386  167.6772 C.2     1  UNL1        0.0699
     12 N         140.4331  141.4642  166.3202 N.2     1  UNL1       -0.2477
     13 C         140.9865  140.1150  165.9687 C.2     1  UNL1        0.0967
     14 C         141.8466  139.6556  167.1085 C.2     1  UNL1        0.0077
     15 C         141.8248  140.7208  168.1644 C.3     1  UNL1        0.1203
     16 C         142.7631  138.3578  170.2970 C.3     1  UNL1        0.2520
     17 O         143.3612  139.6995  169.9937 O.2     1  UNL1       -0.4750
     18 C         138.1671  139.5828  165.0923 C.2     1  UNL1        0.2621
     19 N         137.5439  140.9150  164.7976 N.am    1  UNL1       -0.3240
     20 O         137.6416  138.7413  166.2173 O.2     1  UNL1       -0.2687
     21 H         137.8888  141.4673  164.0593 H       1  UNL1        0.1453
     22 H         136.7899  141.2370  165.3426 H       1  UNL1        0.1453
     23 N         142.7624  137.6200  161.7709 N.pl3   1  UNL1       -0.3170
     24 H         143.3118  136.8667  162.0870 H       1  UNL1        0.1482
     25 C         143.0741  138.2771  160.4591 C.3     1  UNL1        0.0895
     26 C         142.6474  137.6288  159.1754 C.3     1  UNL1        0.0530
     27 C         142.9592  138.2860  157.8635 C.3     1  UNL1        0.1440
     28 O         143.6976  139.5913  157.8353 O.3     1  UNL1       -0.3522
     29 C         144.1244  140.2395  159.1189 C.3     1  UNL1        0.1592
     30 C         143.8126  139.5824  160.4308 C.3     1  UNL1        0.0990
     31 N         144.2394  140.2306  161.7144 N.3     1  UNL1       -0.3189
     32 H         143.9474  139.6512  162.5014 H       1  UNL1        0.1189
     33 H         143.8065  141.1511  161.7908 H       1  UNL1        0.1189
@<TRIPOS>BOND
     1    16    17    1
     2    17     7    1
     3     7     8    2
     4     8     9    1
     5     9    10    2
     6    10    11    1
     7    11    12    2
     8    12    13    1
     9    13     1    1
    10     1     2   ar
    11     2     3   ar
    12     3    23    1
    13    25    23    1
    14    25    26    1
    15    26    27    1
    16    27    28    1
    17    28    29    1
    18    29    30    1
    19    30    31    1
    20     3     4   ar
    21     4     5   ar
    22     5     6   ar
    23     6    18    1
    24    18    19   am
    25    18    20    2
    26    13    14    2
    27    14    15    1
    28    15     7    1
    29    15    11    1
    30     6     1   ar
    31    30    25    1
    32    23    24    1
    33    31    32    1
    34    31    33    1
    35    19    21    1
    36    19    22    1
@<TRIPOS>MOLECULE
*****
 33 36 0 0 0
SMALL
GASTEIGER

@<TRIPOS>ATOM
      1 C         139.2775  140.1515  164.8553 C.ar    1  UNL1        0.1220
      2 N         138.9072  141.4466  164.1952 N.ar    1  UNL1       -0.2261
      3 C         138.2053  141.4389  162.8696 C.ar    1  UNL1        0.1479
      4 C         137.8737  140.1363  162.2040 C.ar    1  UNL1        0.1330
      5 N         138.2441  138.8412  162.8640 N.ar    1  UNL1       -0.2348
      6 C         138.9459  138.8489  164.1896 C.ar    1  UNL1        0.1533
      7 C         140.5370  140.9648  169.9628 C.2     1  UNL1        0.1255
      8 C         141.7100  140.5777  170.8138 C.2     1  UNL1        0.0331
      9 C         142.8402  139.7905  170.2199 C.2     1  UNL1        0.0040
     10 C         142.7975  139.3902  168.7750 C.2     1  UNL1        0.0155
     11 C         141.6246  139.7772  167.9239 C.2     1  UNL1        0.0699
     12 N         141.3063  139.5267  166.4796 N.2     1  UNL1       -0.2477
     13 C         139.9794  140.1592  166.1809 C.2     1  UNL1        0.0967
     14 C         139.4776  140.8006  167.4406 C.2     1  UNL1        0.0077
     15 C         140.4943  140.5645  168.5178 C.3     1  UNL1        0.1203
     16 C         139.5764  143.2167  170.8322 C.3     1  UNL1        0.2520
     17 O         139.4068  141.7521  170.5567 O.2     1  UNL1       -0.4750
     18 C         139.3163  137.5537  164.8497 C.2     1  UNL1        0.2621
     19 N         140.6647  136.9449  164.6029 N.am    1  UNL1       -0.3240
     20 O         138.3381  136.8675  165.7564 O.2     1  UNL1       -0.2687
     21 H         141.3068  137.3953  164.0078 H       1  UNL1        0.1453
     22 H         140.9078  136.0949  165.0361 H       1  UNL1        0.1453
     23 N         137.8350  142.7341  162.2096 N.pl3   1  UNL1       -0.3170
     24 H         136.8872  142.9690  162.0836 H       1  UNL1        0.1482
     25 C         138.9086  143.6712  161.7416 C.3     1  UNL1        0.0895
     26 C         139.4409  143.5636  160.3434 C.3     1  UNL1        0.0530
     27 C         140.5146  144.5008  159.8754 C.3     1  UNL1        0.1440
     28 O         141.0558  145.5456  160.8057 O.3     1  UNL1       -0.3522
     29 C         140.5235  145.6533  162.2039 C.3     1  UNL1        0.1592
     30 C         139.4499  144.7161  162.6719 C.3     1  UNL1        0.0990
     31 N         138.9175  144.8238  164.0701 N.3     1  UNL1       -0.3189
     32 H         138.1991  144.1146  164.2159 H       1  UNL1        0.1189
     33 H         138.5141  145.7501  164.2099 H       1  UNL1        0.1189
@<TRIPOS>BOND
     1    16    17    1
     2    17     7    1
     3     7     8    2
     4     8     9    1
     5     9    10    2
     6    10    11    1
     7    11    12    2
     8    12    13    1
     9    13     1    1
    10     1     2   ar
    11     2     3   ar
    12     3    23    1
    13    25    23    1
    14    25    26    1
    15    26    27    1
    16    27    28    1
    17    28    29    1
    18    29    30    1
    19    30    31    1
    20     3     4   ar
    21     4     5   ar
    22     5     6   ar
    23     6    18    1
    24    18    19   am
    25    18    20    2
    26    13    14    2
    27    14    15    1
    28    15     7    1
    29    15    11    1
    30     6     1   ar
    31    30    25    1
    32    23    24    1
    33    31    32    1
    34    31    33    1
    35    19    21    1
    36    19    22    1
@<TRIPOS>MOLECULE
*****
 33 36 0 0 0
SMALL
GASTEIGER

@<TRIPOS>ATOM
      1 C         139.6808  141.8983  163.5129 C.ar    1  UNL1        0.1220
      2 N         139.7983  140.7735  162.5276 N.ar    1  UNL1       -0.2261
      3 C         139.1242  140.8734  161.1913 C.ar    1  UNL1        0.1479
      4 C         138.3326  142.0982  160.8403 C.ar    1  UNL1        0.1330
      5 N         138.2151  143.2230  161.8256 N.ar    1  UNL1       -0.2348
      6 C         138.8892  143.1231  163.1619 C.ar    1  UNL1        0.1533
      7 C         140.8837  140.6507  168.5459 C.2     1  UNL1        0.1255
      8 C         142.0136  141.0178  169.4615 C.2     1  UNL1        0.0331
      9 C         143.1059  141.9252  168.9783 C.2     1  UNL1        0.0040
     10 C         143.0683  142.4655  167.5795 C.2     1  UNL1        0.0155
     11 C         141.9384  142.0983  166.6639 C.2     1  UNL1        0.0699
     12 N         141.6348  142.4737  165.2437 N.2     1  UNL1       -0.2477
     13 C         140.3549  141.7984  164.8491 C.2     1  UNL1        0.0967
     14 C         139.8674  141.0056  166.0255 C.2     1  UNL1        0.0077
     15 C         140.8461  141.1909  167.1471 C.3     1  UNL1        0.1203
     16 C         138.7039  140.2820  169.9106 C.3     1  UNL1        0.2520
     17 O         139.7914  139.7433  169.0290 O.2     1  UNL1       -0.4750
     18 C         138.7717  144.2480  164.1472 C.2     1  UNL1        0.2621
     19 N         139.8875  145.2402  164.2893 N.am    1  UNL1       -0.3240
     20 O         137.5382  144.3807  164.9904 O.2     1  UNL1       -0.2687
     21 H         140.6971  145.1532  163.7359 H       1  UNL1        0.1453
     22 H         139.8104  145.9786  164.9360 H       1  UNL1        0.1453
     23 N         139.2417  139.7484  160.2060 N.pl3   1  UNL1       -0.3170
     24 H         138.4310  139.3061  159.8649 H       1  UNL1        0.1482
     25 C         140.5944  139.2975  159.7404 C.3     1  UNL1        0.0895
     26 C         141.1862  139.8717  158.4873 C.3     1  UNL1        0.0530
     27 C         142.5390  139.4208  158.0217 C.3     1  UNL1        0.1440
     28 O         143.2999  138.3957  158.8091 O.3     1  UNL1       -0.3522
     29 C         142.7082  137.8215  160.0622 C.3     1  UNL1        0.1592
     30 C         141.3555  138.2724  160.5278 C.3     1  UNL1        0.0990
     31 N         140.7637  137.6982  161.7809 N.3     1  UNL1       -0.3189
     32 H         139.8472  138.1144  161.9458 H       1  UNL1        0.1189
     33 H         141.3766  137.9016  162.5705 H       1  UNL1        0.1189
@<TRIPOS>BOND
     1    16    17    1
     2    17     7    1
     3     7     8    2
     4     8     9    1
     5     9    10    2
     6    10    11    1
     7    11    12    2
     8    12    13    1
     9    13     1    1
    10     1     2   ar
    11     2     3   ar
    12     3    23    1
    13    25    23    1
    14    25    26    1
    15    26    27    1
    16    27    28    1
    17    28    29    1
    18    29    30    1
    19    30    31    1
    20     3     4   ar
    21     4     5   ar
    22     5     6   ar
    23     6    18    1
    24    18    19   am
    25    18    20    2
    26    13    14    2
    27    14    15    1
    28    15     7    1
    29    15    11    1
    30     6     1   ar
    31    30    25    1
    32    23    24    1
    33    31    32    1
    34    31    33    1
    35    19    21    1
    36    19    22    1
@<TRIPOS>MOLECULE
*****
 33 36 0 0 0
SMALL
GASTEIGER

@<TRIPOS>ATOM
      1 C         141.5589  142.7956  164.1506 C.ar    1  UNL1        0.1220
      2 N         140.2677  142.8251  163.3878 N.ar    1  UNL1       -0.2261
      3 C         140.1967  143.5190  162.0599 C.ar    1  UNL1        0.1479
      4 C         141.4169  144.1834  161.4947 C.ar    1  UNL1        0.1330
      5 N         142.7081  144.1540  162.2574 N.ar    1  UNL1       -0.2348
      6 C         142.7791  143.4601  163.5854 C.ar    1  UNL1        0.1533
      7 C         140.8959  141.4728  169.2638 C.2     1  UNL1        0.1255
      8 C         141.4098  140.3520  170.1180 C.2     1  UNL1        0.0331
      9 C         142.3144  139.3121  169.5262 C.2     1  UNL1        0.0040
     10 C         142.7053  139.3930  168.0803 C.2     1  UNL1        0.0155
     11 C         142.1915  140.5139  167.2262 C.2     1  UNL1        0.0699
     12 N         142.4035  140.8525  165.7804 N.2     1  UNL1       -0.2477
     13 C         141.6299  142.1017  165.4785 C.2     1  UNL1        0.0967
     14 C         140.9397  142.5351  166.7378 C.2     1  UNL1        0.0077
     15 C         141.2868  141.5538  167.8179 C.3     1  UNL1        0.1203
     16 C         140.4507  143.9371  169.9562 C.3     1  UNL1        0.2520
     17 O         139.9913  142.5128  169.8556 O.2     1  UNL1       -0.4750
     18 C         144.0704  143.4307  164.3481 C.2     1  UNL1        0.2621
     19 N         144.9675  142.2319  164.2581 N.am    1  UNL1       -0.3240
     20 O         144.4645  144.6000  165.2009 O.2     1  UNL1       -0.2687
     21 H         144.7089  141.4644  163.6984 H       1  UNL1        0.1453
     22 H         145.8150  142.2126  164.7587 H       1  UNL1        0.1453
     23 N         138.9054  143.5484  161.2971 N.pl3   1  UNL1       -0.3170
     24 H         138.3239  144.3415  161.3440 H       1  UNL1        0.1482
     25 C         138.5000  142.3695  160.4630 C.3     1  UNL1        0.0895
     26 C         138.6621  142.4141  158.9725 C.3     1  UNL1        0.0530
     27 C         138.2567  141.2351  158.1383 C.3     1  UNL1        0.1440
     28 O         137.6892  140.0116  158.7948 O.3     1  UNL1       -0.3522
     29 C         137.5270  139.9670  160.2853 C.3     1  UNL1        0.1592
     30 C         137.9324  141.1459  161.1194 C.3     1  UNL1        0.0990
     31 N         137.7703  141.1013  162.6100 N.3     1  UNL1       -0.3189
     32 H         138.0937  141.9805  163.0136 H       1  UNL1        0.1189
     33 H         138.3205  140.3305  162.9889 H       1  UNL1        0.1189
@<TRIPOS>BOND
     1    16    17    1
     2    17     7    1
     3     7     8    2
     4     8     9    1
     5     9    10    2
     6    10    11    1
     7    11    12    2
     8    12    13    1
     9    13     1    1
    10     1     2   ar
    11     2     3   ar
    12     3    23    1
    13    25    23    1
    14    25    26    1
    15    26    27    1
    16    27    28    1
    17    28    29    1
    18    29    30    1
    19    30    31    1
    20     3     4   ar
    21     4     5   ar
    22     5     6   ar
    23     6    18    1
    24    18    19   am
    25    18    20    2
    26    13    14    2
    27    14    15    1
    28    15     7    1
    29    15    11    1
    30     6     1   ar
    31    30    25    1
    32    23    24    1
    33    31    32    1
    34    31    33    1
    35    19    21    1
    36    19    22    1
