@<TRIPOS>MOLECULE
*****
 29 32 0 0 0
SMALL
GASTEIGER

@<TRIPOS>ATOM
      1 C         138.5856  141.6914  161.3222 C.3     1  UNL1        0.0501
      2 C         139.4240  142.3867  162.3535 C.ar    1  UNL1        0.0404
      3 C         140.0474  143.7439  162.2141 C.ar    1  UNL1        0.0074
      4 C         140.7948  144.0428  163.4799 C.ar    1  UNL1        0.0158
      5 C         140.6333  142.8705  164.4015 C.ar    1  UNL1        0.0647
      6 N         139.7860  141.8469  163.7053 N.ar    1  UNL1       -0.2957
      7 C         139.3733  140.5170  164.2632 C.ar    1  UNL1        0.1476
      8 C         138.4008  140.4510  165.4032 C.ar    1  UNL1        0.0397
      9 C         137.9880  139.1212  165.9611 C.ar    1  UNL1        0.0343
     10 C         138.5480  137.8572  165.3788 C.ar    1  UNL1        0.1593
     11 F         138.1353  136.5274  165.9366 F       1  UNL1       -0.2025
     12 C         139.5205  137.9232  164.2387 C.ar    1  UNL1        0.1300
     13 N         139.9332  139.2531  163.6809 N.ar    1  UNL1       -0.2241
     14 C         141.2166  142.7438  165.7776 C.ar    1  UNL1        0.0161
     15 C         142.6715  142.4215  165.9488 C.ar    1  UNL1        0.0011
     16 C         143.2547  142.2949  167.3249 C.ar    1  UNL1       -0.0042
     17 C         142.3832  142.4906  168.5298 C.ar    1  UNL1       -0.0225
     18 C         140.9282  142.8129  168.3587 C.ar    1  UNL1       -0.0042
     19 C         140.3449  142.9395  166.9826 C.ar    1  UNL1        0.0011
     20 C         142.9665  142.3639  169.9060 C.3     1  UNL1        0.0224
     21 C         144.4271  142.6227  170.1282 C.3     1  UNL1        0.0047
     22 C         142.0890  141.9786  171.0599 C.3     1  UNL1        0.0047
     23 C         139.9419  144.6440  161.0189 C.3     1  UNL1        0.1004
     24 N         140.9480  144.5407  159.9111 N.3     1  UNL1       -0.2646
     25 C         142.0123  143.4849  159.9606 C.3     1  UNL1        0.1049
     26 C         143.0184  143.3817  158.8528 C.3     1  UNL1        0.1595
     27 O         142.9601  144.3343  157.6955 O.3     1  UNL1       -0.3508
     28 C         141.8958  145.3901  157.6461 C.3     1  UNL1        0.1595
     29 C         140.8897  145.4933  158.7538 C.3     1  UNL1        0.1049
@<TRIPOS>BOND
     1     1     2    1
     2     2     3   ar
     3     3    23    1
     4    23    24    1
     5    24    25    1
     6    25    26    1
     7    26    27    1
     8    27    28    1
     9    28    29    1
    10     3     4   ar
    11     4     5   ar
    12     5    14    1
    13    14    15   ar
    14    15    16   ar
    15    16    17   ar
    16    17    20    1
    17    20    21    1
    18    20    22    1
    19    17    18   ar
    20    18    19   ar
    21     5     6   ar
    22     6     7    1
    23     7     8   ar
    24     8     9   ar
    25     9    10   ar
    26    10    11    1
    27    10    12   ar
    28    12    13   ar
    29     6     2   ar
    30    13     7   ar
    31    29    24    1
    32    19    14   ar
@<TRIPOS>MOLECULE
*****
 29 32 0 0 0
SMALL
GASTEIGER

@<TRIPOS>ATOM
      1 C         141.6154  140.3391  160.6112 C.3     1  UNL1        0.0501
      2 C         141.9916  141.2308  161.7572 C.ar    1  UNL1        0.0404
      3 C         142.8285  142.4726  161.6703 C.ar    1  UNL1        0.0074
      4 C         142.9510  143.0465  163.0507 C.ar    1  UNL1        0.0158
      5 C         142.1899  142.1595  163.9908 C.ar    1  UNL1        0.0647
      6 N         141.5969  141.0372  163.1913 N.ar    1  UNL1       -0.2957
      7 C         140.7568  139.9180  163.7312 C.ar    1  UNL1        0.1476
      8 C         141.3981  138.6189  164.1198 C.ar    1  UNL1        0.0397
      9 C         140.5580  137.4996  164.6597 C.ar    1  UNL1        0.0343
     10 C         139.0765  137.6795  164.8110 C.ar    1  UNL1        0.1593
     11 F         138.2364  136.5603  165.3509 F       1  UNL1       -0.2025
     12 C         138.4352  138.9786  164.4224 C.ar    1  UNL1        0.1300
     13 N         139.2753  140.0979  163.8825 N.ar    1  UNL1       -0.2241
     14 C         142.0468  142.3594  165.4705 C.ar    1  UNL1        0.0161
     15 C         140.7067  142.6924  166.0562 C.ar    1  UNL1        0.0011
     16 C         140.5636  142.8924  167.5359 C.ar    1  UNL1       -0.0042
     17 C         141.7606  142.7594  168.4299 C.ar    1  UNL1       -0.0225
     18 C         143.1008  142.4265  167.8442 C.ar    1  UNL1       -0.0042
     19 C         143.2439  142.2265  166.3645 C.ar    1  UNL1        0.0011
     20 C         141.6176  142.9594  169.9095 C.3     1  UNL1        0.0224
     21 C         140.2597  142.9113  170.5450 C.3     1  UNL1        0.0047
     22 C         142.8324  143.2074  170.7538 C.3     1  UNL1        0.0047
     23 C         143.4361  143.0407  160.4221 C.3     1  UNL1        0.1004
     24 N         142.6073  143.8886  159.5032 N.3     1  UNL1       -0.2646
     25 C         141.4320  144.6496  160.0411 C.3     1  UNL1        0.1049
     26 C         140.6033  145.4974  159.1223 C.3     1  UNL1        0.1595
     27 O         140.9499  145.5843  157.6655 O.3     1  UNL1       -0.3508
     28 C         142.1253  144.8233  157.1275 C.3     1  UNL1        0.1595
     29 C         142.9540  143.9755  158.0464 C.3     1  UNL1        0.1049
@<TRIPOS>BOND
     1     1     2    1
     2     2     3   ar
     3     3    23    1
     4    23    24    1
     5    24    25    1
     6    25    26    1
     7    26    27    1
     8    27    28    1
     9    28    29    1
    10     3     4   ar
    11     4     5   ar
    12     5    14    1
    13    14    15   ar
    14    15    16   ar
    15    16    17   ar
    16    17    20    1
    17    20    21    1
    18    20    22    1
    19    17    18   ar
    20    18    19   ar
    21     5     6   ar
    22     6     7    1
    23     7     8   ar
    24     8     9   ar
    25     9    10   ar
    26    10    11    1
    27    10    12   ar
    28    12    13   ar
    29     6     2   ar
    30    13     7   ar
    31    29    24    1
    32    19    14   ar
@<TRIPOS>MOLECULE
*****
 29 32 0 0 0
SMALL
GASTEIGER

@<TRIPOS>ATOM
      1 C         143.4291  139.8923  158.4545 C.3     1  UNL1        0.0501
      2 C         142.2534  139.4366  159.2668 C.ar    1  UNL1        0.0404
      3 C         141.0401  138.7282  158.7415 C.ar    1  UNL1        0.0074
      4 C         140.1214  138.4631  159.8972 C.ar    1  UNL1        0.0158
      5 C         140.7669  139.0076  161.1369 C.ar    1  UNL1        0.0647
      6 N         142.0846  139.6093  160.7473 N.ar    1  UNL1       -0.2957
      7 C         143.0618  140.2681  161.6752 C.ar    1  UNL1        0.1476
      8 C         143.8610  139.4378  162.6354 C.ar    1  UNL1        0.0397
      9 C         144.8383  140.0964  163.5633 C.ar    1  UNL1        0.0343
     10 C         145.0163  141.5855  163.5311 C.ar    1  UNL1        0.1593
     11 F         145.9936  142.2443  164.4590 F       1  UNL1       -0.2025
     12 C         144.2171  142.4158  162.5709 C.ar    1  UNL1        0.1300
     13 N         143.2399  141.7571  161.6430 N.ar    1  UNL1       -0.2241
     14 C         140.1951  138.9591  162.5228 C.ar    1  UNL1        0.0161
     15 C         139.6615  140.2086  163.1582 C.ar    1  UNL1        0.0011
     16 C         139.0898  140.1600  164.5441 C.ar    1  UNL1       -0.0042
     17 C         139.0516  138.8619  165.2945 C.ar    1  UNL1       -0.0225
     18 C         139.5852  137.6123  164.6592 C.ar    1  UNL1       -0.0042
     19 C         140.1569  137.6609  163.2733 C.ar    1  UNL1        0.0011
     20 C         138.4798  138.8134  166.6804 C.3     1  UNL1        0.0224
     21 C         137.3851  137.8412  167.0065 C.3     1  UNL1        0.0047
     22 C         139.0028  139.7370  167.7403 C.3     1  UNL1        0.0047
     23 C         140.7895  138.3511  157.3115 C.3     1  UNL1        0.1004
     24 N         141.3570  137.0760  156.7615 N.3     1  UNL1       -0.2646
     25 C         140.6401  136.3484  155.6631 C.3     1  UNL1        0.1049
     26 C         141.2076  135.0735  155.1132 C.3     1  UNL1        0.1595
     27 O         142.4919  134.5261  155.6618 O.3     1  UNL1       -0.3508
     28 C         143.2087  135.2537  156.7602 C.3     1  UNL1        0.1595
     29 C         142.6413  136.5287  157.3101 C.3     1  UNL1        0.1049
@<TRIPOS>BOND
     1     1     2    1
     2     2     3   ar
     3     3    23    1
     4    23    24    1
     5    24    25    1
     6    25    26    1
     7    26    27    1
     8    27    28    1
     9    28    29    1
    10     3     4   ar
    11     4     5   ar
    12     5    14    1
    13    14    15   ar
    14    15    16   ar
    15    16    17   ar
    16    17    20    1
    17    20    21    1
    18    20    22    1
    19    17    18   ar
    20    18    19   ar
    21     5     6   ar
    22     6     7    1
    23     7     8   ar
    24     8     9   ar
    25     9    10   ar
    26    10    11    1
    27    10    12   ar
    28    12    13   ar
    29     6     2   ar
    30    13     7   ar
    31    29    24    1
    32    19    14   ar
@<TRIPOS>MOLECULE
*****
 29 32 0 0 0
SMALL
GASTEIGER

@<TRIPOS>ATOM
      1 C         140.5013  139.2138  157.0723 C.3     1  UNL1        0.0501
      2 C         141.3337  138.6670  158.1939 C.ar    1  UNL1        0.0404
      3 C         142.4153  137.6354  158.0674 C.ar    1  UNL1        0.0074
      4 C         142.9808  137.3867  159.4343 C.ar    1  UNL1        0.0158
      5 C         142.2486  138.2644  160.4057 C.ar    1  UNL1        0.0647
      6 N         141.2307  139.0557  159.6390 N.ar    1  UNL1       -0.2957
      7 C         140.2771  140.0595  160.2162 C.ar    1  UNL1        0.1476
      8 C         138.9568  139.6091  160.7675 C.ar    1  UNL1        0.0397
      9 C         138.0032  140.6129  161.3447 C.ar    1  UNL1        0.0343
     10 C         138.3699  142.0672  161.3705 C.ar    1  UNL1        0.1593
     11 F         137.4164  143.0710  161.9476 F       1  UNL1       -0.2025
     12 C         139.6902  142.5176  160.8192 C.ar    1  UNL1        0.1300
     13 N         140.6438  141.5138  160.2420 N.ar    1  UNL1       -0.2241
     14 C         142.4917  138.3380  161.8840 C.ar    1  UNL1        0.0161
     15 C         143.7114  139.0350  162.4097 C.ar    1  UNL1        0.0011
     16 C         143.9545  139.1086  163.8880 C.ar    1  UNL1       -0.0042
     17 C         142.9779  138.4852  164.8406 C.ar    1  UNL1       -0.0225
     18 C         141.7581  137.7882  164.3149 C.ar    1  UNL1       -0.0042
     19 C         141.5151  137.7146  162.8366 C.ar    1  UNL1        0.0011
     20 C         143.2210  138.5588  166.3189 C.3     1  UNL1        0.0224
     21 C         144.1709  137.5988  166.9715 C.3     1  UNL1        0.0047
     22 C         142.5141  139.5925  167.1447 C.3     1  UNL1        0.0047
     23 C         142.8544  136.9696  156.7971 C.3     1  UNL1        0.1004
     24 N         142.6022  135.5052  156.5919 N.3     1  UNL1       -0.2646
     25 C         143.3742  134.4929  157.3850 C.3     1  UNL1        0.1049
     26 C         143.1219  133.0286  157.1797 C.3     1  UNL1        0.1595
     27 O         142.0978  132.5766  156.1813 O.3     1  UNL1       -0.3508
     28 C         141.3258  133.5890  155.3882 C.3     1  UNL1        0.1595
     29 C         141.5780  135.0533  155.5935 C.3     1  UNL1        0.1049
@<TRIPOS>BOND
     1     1     2    1
     2     2     3   ar
     3     3    23    1
     4    23    24    1
     5    24    25    1
     6    25    26    1
     7    26    27    1
     8    27    28    1
     9    28    29    1
    10     3     4   ar
    11     4     5   ar
    12     5    14    1
    13    14    15   ar
    14    15    16   ar
    15    16    17   ar
    16    17    20    1
    17    20    21    1
    18    20    22    1
    19    17    18   ar
    20    18    19   ar
    21     5     6   ar
    22     6     7    1
    23     7     8   ar
    24     8     9   ar
    25     9    10   ar
    26    10    11    1
    27    10    12   ar
    28    12    13   ar
    29     6     2   ar
    30    13     7   ar
    31    29    24    1
    32    19    14   ar
@<TRIPOS>MOLECULE
*****
 29 32 0 0 0
SMALL
GASTEIGER

@<TRIPOS>ATOM
      1 C         140.8256  139.9152  167.0690 C.3     1  UNL1        0.0501
      2 C         141.3588  141.0044  166.1862 C.ar    1  UNL1        0.0404
      3 C         142.3543  142.0537  166.5839 C.ar    1  UNL1        0.0074
      4 C         142.6008  142.9333  165.3942 C.ar    1  UNL1        0.0158
      5 C         141.7578  142.4277  164.2612 C.ar    1  UNL1        0.0647
      6 N         140.9902  141.2356  164.7507 N.ar    1  UNL1       -0.2957
      7 C         140.0237  140.4181  163.9460 C.ar    1  UNL1        0.1476
      8 C         138.7152  141.0122  163.5161 C.ar    1  UNL1        0.0397
      9 C         137.7486  140.1948  162.7113 C.ar    1  UNL1        0.0343
     10 C         138.0906  138.7832  162.3365 C.ar    1  UNL1        0.1593
     11 F         137.1240  137.9658  161.5318 F       1  UNL1       -0.2025
     12 C         139.3991  138.1891  162.7664 C.ar    1  UNL1        0.1300
     13 N         140.3656  139.0066  163.5711 N.ar    1  UNL1       -0.2241
     14 C         141.6937  143.0117  162.8811 C.ar    1  UNL1        0.0161
     15 C         140.9377  144.2845  162.6396 C.ar    1  UNL1        0.0011
     16 C         140.8735  144.8685  161.2595 C.ar    1  UNL1       -0.0042
     17 C         141.5654  144.1797  160.1208 C.ar    1  UNL1       -0.0225
     18 C         142.3214  142.9069  160.3621 C.ar    1  UNL1       -0.0042
     19 C         142.3856  142.3229  161.7423 C.ar    1  UNL1        0.0011
     20 C         141.5012  144.7637  158.7406 C.3     1  UNL1        0.0224
     21 C         140.3736  145.6788  158.3651 C.3     1  UNL1        0.0047
     22 C         142.5647  144.4326  157.7359 C.3     1  UNL1        0.0047
     23 C         142.9912  142.1979  167.9342 C.3     1  UNL1        0.1004
     24 N         142.1421  142.1736  169.1706 N.3     1  UNL1       -0.2646
     25 C         142.4912  141.2531  170.3022 C.3     1  UNL1        0.1049
     26 C         141.6420  141.2288  171.5384 C.3     1  UNL1        0.1595
     27 O         140.4438  142.1251  171.6430 O.3     1  UNL1       -0.3508
     28 C         140.0947  143.0457  170.5114 C.3     1  UNL1        0.1595
     29 C         140.9439  143.0699  169.2751 C.3     1  UNL1        0.1049
@<TRIPOS>BOND
     1     1     2    1
     2     2     3   ar
     3     3    23    1
     4    23    24    1
     5    24    25    1
     6    25    26    1
     7    26    27    1
     8    27    28    1
     9    28    29    1
    10     3     4   ar
    11     4     5   ar
    12     5    14    1
    13    14    15   ar
    14    15    16   ar
    15    16    17   ar
    16    17    20    1
    17    20    21    1
    18    20    22    1
    19    17    18   ar
    20    18    19   ar
    21     5     6   ar
    22     6     7    1
    23     7     8   ar
    24     8     9   ar
    25     9    10   ar
    26    10    11    1
    27    10    12   ar
    28    12    13   ar
    29     6     2   ar
    30    13     7   ar
    31    29    24    1
    32    19    14   ar
@<TRIPOS>MOLECULE
*****
 29 32 0 0 0
SMALL
GASTEIGER

@<TRIPOS>ATOM
      1 C         142.7734  139.4410  158.3604 C.3     1  UNL1        0.0501
      2 C         141.6099  139.1394  159.2578 C.ar    1  UNL1        0.0404
      3 C         140.2726  138.6179  158.8225 C.ar    1  UNL1        0.0074
      4 C         139.4156  138.4626  160.0437 C.ar    1  UNL1        0.0158
      5 C         140.2233  138.8882  161.2339 C.ar    1  UNL1        0.0647
      6 N         141.5794  139.3065  160.7482 N.ar    1  UNL1       -0.2957
      7 C         142.7072  139.8045  161.6028 C.ar    1  UNL1        0.1476
      8 C         143.4158  138.8641  162.5320 C.ar    1  UNL1        0.0397
      9 C         144.5436  139.3620  163.3866 C.ar    1  UNL1        0.0343
     10 C         144.9626  140.8004  163.3120 C.ar    1  UNL1        0.1593
     11 F         146.0903  141.2984  164.1666 F       1  UNL1       -0.2025
     12 C         144.2539  141.7408  162.3828 C.ar    1  UNL1        0.1300
     13 N         143.1262  141.2428  161.5282 N.ar    1  UNL1       -0.2241
     14 C         139.7567  138.8944  162.6595 C.ar    1  UNL1        0.0161
     15 C         139.1889  140.1473  163.2574 C.ar    1  UNL1        0.0011
     16 C         138.7223  140.1535  164.6829 C.ar    1  UNL1       -0.0042
     17 C         138.8237  138.9068  165.5106 C.ar    1  UNL1       -0.0225
     18 C         139.3916  137.6537  164.9128 C.ar    1  UNL1       -0.0042
     19 C         139.8581  137.6475  163.4873 C.ar    1  UNL1        0.0011
     20 C         138.3572  138.9130  166.9362 C.3     1  UNL1        0.0224
     21 C         137.1944  138.0598  167.3486 C.3     1  UNL1        0.0047
     22 C         139.0534  139.7724  167.9495 C.3     1  UNL1        0.0047
     23 C         139.8640  138.3063  157.4132 C.3     1  UNL1        0.1004
     24 N         138.8818  139.1909  156.7041 N.3     1  UNL1       -0.2646
     25 C         138.4653  138.8735  155.2985 C.3     1  UNL1        0.1049
     26 C         137.4832  139.7581  154.5894 C.3     1  UNL1        0.1595
     27 O         136.9176  140.9602  155.2859 O.3     1  UNL1       -0.3508
     28 C         137.3341  141.2776  156.6915 C.3     1  UNL1        0.1595
     29 C         138.3162  140.3930  157.4006 C.3     1  UNL1        0.1049
@<TRIPOS>BOND
     1     1     2    1
     2     2     3   ar
     3     3    23    1
     4    23    24    1
     5    24    25    1
     6    25    26    1
     7    26    27    1
     8    27    28    1
     9    28    29    1
    10     3     4   ar
    11     4     5   ar
    12     5    14    1
    13    14    15   ar
    14    15    16   ar
    15    16    17   ar
    16    17    20    1
    17    20    21    1
    18    20    22    1
    19    17    18   ar
    20    18    19   ar
    21     5     6   ar
    22     6     7    1
    23     7     8   ar
    24     8     9   ar
    25     9    10   ar
    26    10    11    1
    27    10    12   ar
    28    12    13   ar
    29     6     2   ar
    30    13     7   ar
    31    29    24    1
    32    19    14   ar
@<TRIPOS>MOLECULE
*****
 29 32 0 0 0
SMALL
GASTEIGER

@<TRIPOS>ATOM
      1 C         140.2649  140.0588  160.4840 C.3     1  UNL1        0.0501
      2 C         141.1507  139.7589  161.6568 C.ar    1  UNL1        0.0404
      3 C         142.2865  138.7794  161.6762 C.ar    1  UNL1        0.0074
      4 C         142.8940  138.8011  163.0476 C.ar    1  UNL1        0.0158
      5 C         142.1336  139.7941  163.8757 C.ar    1  UNL1        0.0647
      6 N         141.0562  140.3861  163.0161 N.ar    1  UNL1       -0.2957
      7 C         140.0593  141.4231  163.4413 C.ar    1  UNL1        0.1476
      8 C         138.7994  141.0095  164.1424 C.ar    1  UNL1        0.0397
      9 C         137.8025  142.0464  164.5676 C.ar    1  UNL1        0.0343
     10 C         138.0655  143.4973  164.2917 C.ar    1  UNL1        0.1593
     11 F         137.0687  144.5343  164.7168 F       1  UNL1       -0.2025
     12 C         139.3255  143.9109  163.5906 C.ar    1  UNL1        0.1300
     13 N         140.3223  142.8739  163.1654 N.ar    1  UNL1       -0.2241
     14 C         142.4033  140.1352  165.3113 C.ar    1  UNL1        0.0161
     15 C         142.7194  141.5490  165.6996 C.ar    1  UNL1        0.0011
     16 C         142.9891  141.8902  167.1352 C.ar    1  UNL1       -0.0042
     17 C         142.9426  140.8174  168.1824 C.ar    1  UNL1       -0.0225
     18 C         142.6265  139.4034  167.7942 C.ar    1  UNL1       -0.0042
     19 C         142.3568  139.0623  166.3586 C.ar    1  UNL1        0.0011
     20 C         143.2123  141.1585  169.6180 C.3     1  UNL1        0.0224
     21 C         143.8953  142.4474  169.9671 C.3     1  UNL1        0.0047
     22 C         142.7989  140.2105  170.7045 C.3     1  UNL1        0.0047
     23 C         142.7359  137.9276  160.5262 C.3     1  UNL1        0.1004
     24 N         143.1077  138.5658  159.2206 N.3     1  UNL1       -0.2646
     25 C         142.7474  137.8949  157.9283 C.3     1  UNL1        0.1049
     26 C         143.1192  138.5331  156.6228 C.3     1  UNL1        0.1595
     27 O         143.8514  139.8421  156.6096 O.3     1  UNL1       -0.3508
     28 C         144.2118  140.5131  157.9018 C.3     1  UNL1        0.1595
     29 C         143.8399  139.8749  159.2073 C.3     1  UNL1        0.1049
@<TRIPOS>BOND
     1     1     2    1
     2     2     3   ar
     3     3    23    1
     4    23    24    1
     5    24    25    1
     6    25    26    1
     7    26    27    1
     8    27    28    1
     9    28    29    1
    10     3     4   ar
    11     4     5   ar
    12     5    14    1
    13    14    15   ar
    14    15    16   ar
    15    16    17   ar
    16    17    20    1
    17    20    21    1
    18    20    22    1
    19    17    18   ar
    20    18    19   ar
    21     5     6   ar
    22     6     7    1
    23     7     8   ar
    24     8     9   ar
    25     9    10   ar
    26    10    11    1
    27    10    12   ar
    28    12    13   ar
    29     6     2   ar
    30    13     7   ar
    31    29    24    1
    32    19    14   ar
@<TRIPOS>MOLECULE
*****
 29 32 0 0 0
SMALL
GASTEIGER

@<TRIPOS>ATOM
      1 C         141.4452  145.6271  158.4677 C.3     1  UNL1        0.0501
      2 C         140.6374  144.4462  158.9182 C.ar    1  UNL1        0.0404
      3 C         139.6243  143.7058  158.0964 C.ar    1  UNL1        0.0074
      4 C         139.0616  142.6004  158.9400 C.ar    1  UNL1        0.0158
      5 C         139.7268  142.6577  160.2832 C.ar    1  UNL1        0.0647
      6 N         140.7008  143.7986  160.2697 N.ar    1  UNL1       -0.2957
      7 C         141.5832  144.2180  161.4079 C.ar    1  UNL1        0.1476
      8 C         141.0027  144.9682  162.5699 C.ar    1  UNL1        0.0397
      9 C         141.8850  145.3876  163.7082 C.ar    1  UNL1        0.0343
     10 C         143.3479  145.0569  163.6843 C.ar    1  UNL1        0.1593
     11 F         144.2303  145.4763  164.8225 F       1  UNL1       -0.2025
     12 C         143.9284  144.3067  162.5223 C.ar    1  UNL1        0.1300
     13 N         143.0460  143.8873  161.3841 N.ar    1  UNL1       -0.2241
     14 C         139.4643  141.7361  161.4371 C.ar    1  UNL1        0.0161
     15 C         140.5209  140.7673  161.8786 C.ar    1  UNL1        0.0011
     16 C         140.2584  139.8457  163.0326 C.ar    1  UNL1       -0.0042
     17 C         138.9393  139.8929  163.7451 C.ar    1  UNL1       -0.0225
     18 C         137.8827  140.8618  163.3037 C.ar    1  UNL1       -0.0042
     19 C         138.1452  141.7834  162.1497 C.ar    1  UNL1        0.0011
     20 C         138.6768  138.9713  164.8991 C.3     1  UNL1        0.0224
     21 C         138.0467  139.5004  166.1532 C.3     1  UNL1        0.0047
     22 C         139.0445  137.5205  164.7989 C.3     1  UNL1        0.0047
     23 C         139.2412  144.0162  156.6798 C.3     1  UNL1        0.1004
     24 N         138.3548  143.0750  155.9191 N.3     1  UNL1       -0.2646
     25 C         138.9402  141.8624  155.2583 C.3     1  UNL1        0.1049
     26 C         138.0538  140.9213  154.4977 C.3     1  UNL1        0.1595
     27 O         136.5820  141.1928  154.3979 O.3     1  UNL1       -0.3508
     28 C         135.9965  142.4054  155.0587 C.3     1  UNL1        0.1595
     29 C         136.8830  143.3465  155.8194 C.3     1  UNL1        0.1049
@<TRIPOS>BOND
     1     1     2    1
     2     2     3   ar
     3     3    23    1
     4    23    24    1
     5    24    25    1
     6    25    26    1
     7    26    27    1
     8    27    28    1
     9    28    29    1
    10     3     4   ar
    11     4     5   ar
    12     5    14    1
    13    14    15   ar
    14    15    16   ar
    15    16    17   ar
    16    17    20    1
    17    20    21    1
    18    20    22    1
    19    17    18   ar
    20    18    19   ar
    21     5     6   ar
    22     6     7    1
    23     7     8   ar
    24     8     9   ar
    25     9    10   ar
    26    10    11    1
    27    10    12   ar
    28    12    13   ar
    29     6     2   ar
    30    13     7   ar
    31    29    24    1
    32    19    14   ar
@<TRIPOS>MOLECULE
*****
 29 32 0 0 0
SMALL
GASTEIGER

@<TRIPOS>ATOM
      1 C         141.7937  143.8180  160.5874 C.3     1  UNL1        0.0501
      2 C         142.4979  143.0750  161.6838 C.ar    1  UNL1        0.0404
      3 C         143.8563  142.4456  161.5910 C.ar    1  UNL1        0.0074
      4 C         144.1652  141.8125  162.9154 C.ar    1  UNL1        0.0158
      5 C         142.9977  142.0506  163.8266 C.ar    1  UNL1        0.0647
      6 N         141.9672  142.8309  163.0654 N.ar    1  UNL1       -0.2957
      7 C         140.6393  143.2869  163.5932 C.ar    1  UNL1        0.1476
      8 C         140.5766  144.3577  164.6418 C.ar    1  UNL1        0.0397
      9 C         139.2487  144.8138  165.1696 C.ar    1  UNL1        0.0343
     10 C         137.9834  144.1991  164.6487 C.ar    1  UNL1        0.1593
     11 F         136.6554  144.6552  165.1765 F       1  UNL1       -0.2025
     12 C         138.0460  143.1284  163.6001 C.ar    1  UNL1        0.1300
     13 N         139.3740  142.6723  163.0723 N.ar    1  UNL1       -0.2241
     14 C         142.8811  141.5894  165.2491 C.ar    1  UNL1        0.0161
     15 C         142.3388  140.2243  165.5530 C.ar    1  UNL1        0.0011
     16 C         142.2222  139.7631  166.9755 C.ar    1  UNL1       -0.0042
     17 C         142.6480  140.6670  168.0942 C.ar    1  UNL1       -0.0225
     18 C         143.1903  142.0321  167.7905 C.ar    1  UNL1       -0.0042
     19 C         143.3069  142.4933  166.3679 C.ar    1  UNL1        0.0011
     20 C         142.5314  140.2058  169.5168 C.3     1  UNL1        0.0224
     21 C         142.6306  138.7450  169.8421 C.3     1  UNL1        0.0047
     22 C         142.3156  141.2056  170.6140 C.3     1  UNL1        0.0047
     23 C         144.7490  142.4487  160.3857 C.3     1  UNL1        0.1004
     24 N         144.4799  141.5058  159.2505 N.3     1  UNL1       -0.2646
     25 C         145.0675  141.7745  157.8969 C.3     1  UNL1        0.1049
     26 C         144.7984  140.8315  156.7618 C.3     1  UNL1        0.1595
     27 O         143.9417  139.6198  156.9805 O.3     1  UNL1       -0.3508
     28 C         143.3541  139.3511  158.3341 C.3     1  UNL1        0.1595
     29 C         143.6232  140.2940  159.4692 C.3     1  UNL1        0.1049
@<TRIPOS>BOND
     1     1     2    1
     2     2     3   ar
     3     3    23    1
     4    23    24    1
     5    24    25    1
     6    25    26    1
     7    26    27    1
     8    27    28    1
     9    28    29    1
    10     3     4   ar
    11     4     5   ar
    12     5    14    1
    13    14    15   ar
    14    15    16   ar
    15    16    17   ar
    16    17    20    1
    17    20    21    1
    18    20    22    1
    19    17    18   ar
    20    18    19   ar
    21     5     6   ar
    22     6     7    1
    23     7     8   ar
    24     8     9   ar
    25     9    10   ar
    26    10    11    1
    27    10    12   ar
    28    12    13   ar
    29     6     2   ar
    30    13     7   ar
    31    29    24    1
    32    19    14   ar
