@<TRIPOS>MOLECULE
*****
 35 39 0 0 0
SMALL
GASTEIGER

@<TRIPOS>ATOM
      1 C         143.0711  141.3870  159.6476 C.ar    1  UNL1        0.0930
      2 C         143.7846  140.5495  158.6281 C.ar    1  UNL1        0.1067
      3 N         144.1304  139.2369  159.2665 N.ar    1  UNL1       -0.2252
      4 C         143.6308  139.2633  160.6806 C.ar    1  UNL1        0.1586
      5 N         143.6873  138.2490  161.7842 N.ar    1  UNL1       -0.3349
      6 C         143.0892  138.5635  163.1233 C.ar    1  UNL1        0.0945
      7 C         142.4345  139.8924  163.3588 C.ar    1  UNL1        0.1176
      8 N         142.3779  140.9067  162.2553 N.ar    1  UNL1       -0.2390
      9 C         142.9761  140.5922  160.9162 C.ar    1  UNL1        0.1210
     10 H         144.1170  137.3768  161.6296 H       1  UNL1        0.1675
     11 C         141.8364  140.2069  164.6980 C.ar    1  UNL1        0.1213
     12 N         142.3757  141.1883  165.6960 N.ar    1  UNL1       -0.1678
     13 N         141.4667  141.1832  166.8891 N.ar    1  UNL1       -0.2526
     14 C         140.3654  140.1986  166.6285 C.ar    1  UNL1        0.0815
     15 C         139.1841  139.7735  167.4493 C.ar    1  UNL1        0.0484
     16 C         138.2314  138.7450  166.9160 C.ar    1  UNL1        0.1416
     17 F         137.0500  138.3199  167.7369 F       1  UNL1       -0.2041
     18 C         138.4599  138.1416  165.5618 C.ar    1  UNL1        0.0298
     19 C         139.6412  138.5667  164.7410 C.ar    1  UNL1        0.0054
     20 C         140.5940  139.5952  165.2744 C.ar    1  UNL1        0.0383
     21 C         141.6301  142.0164  168.1257 C.3     1  UNL1        0.1079
     22 C         140.5156  142.9121  168.5792 C.3     1  UNL1        0.0415
     23 C         140.6790  143.7453  169.8158 C.3     1  UNL1        0.0706
     24 N         141.9569  143.6827  170.5988 N.3     1  UNL1       -0.2974
     25 C         143.0713  142.7870  170.1452 C.3     1  UNL1        0.0706
     26 C         142.9079  141.9539  168.9086 C.3     1  UNL1        0.0415
     27 H         141.7091  143.3892  171.5437 H       1  UNL1        0.1232
     28 N         141.6131  143.0589  158.2951 N.am    1  UNL1       -0.3039
     29 C         142.5451  142.7757  159.4359 C.2     1  UNL1        0.2488
     30 O         142.9509  143.8813  160.3648 O.2     1  UNL1       -0.2700
     31 H         141.3467  142.3333  157.6853 H       1  UNL1        0.1496
     32 C         142.2377  144.7437  157.1677 C.3     1  UNL1        0.0196
     33 C         141.0870  144.4476  158.0833 C.3     1  UNL1        0.0572
     34 C         139.9364  144.1513  158.9989 C.3     1  UNL1        0.0196
     35 C         140.5610  145.8362  157.8715 C.3     1  UNL1        0.0196
@<TRIPOS>BOND
     1    32    33    1
     2    33    34    1
     3    33    35    1
     4    33    28    1
     5    28    29   am
     6    29    30    2
     7    29     1    1
     8     1     2   ar
     9     2     3   ar
    10     3     4   ar
    11     4     5   ar
    12     5     6   ar
    13     6     7   ar
    14     7    11    1
    15    11    12   ar
    16    12    13   ar
    17    13    21    1
    18    21    22    1
    19    22    23    1
    20    23    24    1
    21    24    25    1
    22    25    26    1
    23    13    14   ar
    24    14    15   ar
    25    15    16   ar
    26    16    17    1
    27    16    18   ar
    28    18    19   ar
    29    19    20   ar
    30     7     8   ar
    31     8     9   ar
    32     9     1   ar
    33     9     4    1
    34    20    11   ar
    35    26    21    1
    36    20    14   ar
    37    28    31    1
    38     5    10    1
    39    24    27    1
@<TRIPOS>MOLECULE
*****
 35 39 0 0 0
SMALL
GASTEIGER

@<TRIPOS>ATOM
      1 C         141.8402  143.0549  160.1522 C.ar    1  UNL1        0.0930
      2 C         141.8325  144.3149  159.3384 C.ar    1  UNL1        0.1067
      3 N         141.4178  145.4434  160.2353 N.ar    1  UNL1       -0.2252
      4 C         141.1691  144.8809  161.6034 C.ar    1  UNL1        0.1586
      5 N         140.7387  145.5221  162.8893 N.ar    1  UNL1       -0.3349
      6 C         140.5694  144.6871  164.1238 C.ar    1  UNL1        0.0945
      7 C         140.8305  143.2109  164.0725 C.ar    1  UNL1        0.1176
      8 N         141.2609  142.5697  162.7866 N.ar    1  UNL1       -0.2390
      9 C         141.4302  143.4047  161.5521 C.ar    1  UNL1        0.1210
     10 H         140.5674  146.4910  162.9230 H       1  UNL1        0.1675
     11 C         140.6611  142.3759  165.3071 C.ar    1  UNL1        0.1213
     12 N         141.4068  142.5483  166.5971 N.ar    1  UNL1       -0.1678
     13 N         140.9230  141.5009  167.5557 N.ar    1  UNL1       -0.2526
     14 C         139.8782  140.6812  166.8580 C.ar    1  UNL1        0.0815
     15 C         139.0533  139.5122  167.3087 C.ar    1  UNL1        0.0484
     16 C         138.0667  138.8841  166.3696 C.ar    1  UNL1        0.1416
     17 F         137.2418  137.7150  166.8203 F       1  UNL1       -0.2041
     18 C         137.9049  139.4249  164.9798 C.ar    1  UNL1        0.0298
     19 C         138.7298  140.5938  164.5292 C.ar    1  UNL1        0.0054
     20 C         139.7164  141.2220  165.4683 C.ar    1  UNL1        0.0383
     21 C         141.4000  141.3072  168.9646 C.3     1  UNL1        0.1079
     22 C         142.4994  140.3293  169.2564 C.3     1  UNL1        0.0415
     23 C         142.9764  140.1356  170.6652 C.3     1  UNL1        0.0706
     24 N         142.3542  140.9198  171.7823 N.3     1  UNL1       -0.2974
     25 C         141.2548  141.8978  171.4904 C.3     1  UNL1        0.0706
     26 C         140.7778  142.0914  170.0816 C.3     1  UNL1        0.0415
     27 H         143.1062  141.4463  172.2270 H       1  UNL1        0.1232
     28 N         142.0987  140.5042  160.5731 N.am    1  UNL1       -0.3039
     29 C         142.1955  141.6855  159.6537 C.2     1  UNL1        0.2488
     30 O         142.6476  141.4973  158.2359 O.2     1  UNL1       -0.2700
     31 H         141.8020  140.6276  161.5036 H       1  UNL1        0.1496
     32 C         141.0301  138.9178  159.6558 C.3     1  UNL1        0.0196
     33 C         142.4540  139.1348  160.0746 C.3     1  UNL1        0.0572
     34 C         143.8780  139.3518  160.4933 C.3     1  UNL1        0.0196
     35 C         142.8093  137.7654  159.5761 C.3     1  UNL1        0.0196
@<TRIPOS>BOND
     1    32    33    1
     2    33    34    1
     3    33    35    1
     4    33    28    1
     5    28    29   am
     6    29    30    2
     7    29     1    1
     8     1     2   ar
     9     2     3   ar
    10     3     4   ar
    11     4     5   ar
    12     5     6   ar
    13     6     7   ar
    14     7    11    1
    15    11    12   ar
    16    12    13   ar
    17    13    21    1
    18    21    22    1
    19    22    23    1
    20    23    24    1
    21    24    25    1
    22    25    26    1
    23    13    14   ar
    24    14    15   ar
    25    15    16   ar
    26    16    17    1
    27    16    18   ar
    28    18    19   ar
    29    19    20   ar
    30     7     8   ar
    31     8     9   ar
    32     9     1   ar
    33     9     4    1
    34    20    11   ar
    35    26    21    1
    36    20    14   ar
    37    28    31    1
    38     5    10    1
    39    24    27    1
@<TRIPOS>MOLECULE
*****
 35 39 0 0 0
SMALL
GASTEIGER

@<TRIPOS>ATOM
      1 C         142.0953  142.8434  159.6808 C.ar    1  UNL1        0.0930
      2 C         141.8977  144.0353  158.7918 C.ar    1  UNL1        0.1067
      3 N         141.5749  145.2139  159.6618 N.ar    1  UNL1       -0.2252
      4 C         141.5730  144.7503  161.0884 C.ar    1  UNL1        0.1586
      5 N         141.3199  145.4730  162.3782 N.ar    1  UNL1       -0.3349
      6 C         141.3884  144.7306  163.6797 C.ar    1  UNL1        0.0945
      7 C         141.7100  143.2655  163.6915 C.ar    1  UNL1        0.1176
      8 N         141.9631  142.5429  162.4017 N.ar    1  UNL1       -0.2390
      9 C         141.8946  143.2853  161.1001 C.ar    1  UNL1        0.1210
     10 H         141.1088  146.4346  162.3705 H       1  UNL1        0.1675
     11 C         141.7785  142.5232  164.9931 C.ar    1  UNL1        0.1213
     12 N         141.2103  142.9848  166.3024 N.ar    1  UNL1       -0.1678
     13 N         141.5078  141.9358  167.3325 N.ar    1  UNL1       -0.2526
     14 C         142.2599  140.8258  166.6598 C.ar    1  UNL1        0.0815
     15 C         142.8141  139.5315  167.1770 C.ar    1  UNL1        0.0484
     16 C         143.5355  138.6002  166.2486 C.ar    1  UNL1        0.1416
     17 F         144.0896  137.3057  166.7658 F       1  UNL1       -0.2041
     18 C         143.7028  138.9632  164.8027 C.ar    1  UNL1        0.0298
     19 C         143.1486  140.2575  164.2855 C.ar    1  UNL1        0.0054
     20 C         142.4272  141.1889  165.2141 C.ar    1  UNL1        0.0383
     21 C         141.1212  141.9876  168.7808 C.3     1  UNL1        0.1079
     22 C         141.5381  140.8849  169.7083 C.3     1  UNL1        0.0415
     23 C         141.1514  140.9368  171.1567 C.3     1  UNL1        0.0706
     24 N         140.3479  142.0913  171.6776 N.3     1  UNL1       -0.2974
     25 C         139.9310  143.1940  170.7501 C.3     1  UNL1        0.0706
     26 C         140.3176  143.1422  169.3017 C.3     1  UNL1        0.0415
     27 H         140.8992  142.5230  172.4192 H       1  UNL1        0.1232
     28 N         142.1510  140.2842  160.1257 N.am    1  UNL1       -0.3039
     29 C         142.4340  141.4535  159.2297 C.2     1  UNL1        0.2488
     30 O         143.0558  141.2328  157.8826 O.2     1  UNL1       -0.2700
     31 H         141.7429  140.4290  161.0099 H       1  UNL1        0.1496
     32 C         141.1565  138.7900  158.9952 C.3     1  UNL1        0.0196
     33 C         142.4898  138.8944  159.6746 C.3     1  UNL1        0.0572
     34 C         143.8230  138.9988  160.3540 C.3     1  UNL1        0.0196
     35 C         142.8285  137.5046  159.2235 C.3     1  UNL1        0.0196
@<TRIPOS>BOND
     1    32    33    1
     2    33    34    1
     3    33    35    1
     4    33    28    1
     5    28    29   am
     6    29    30    2
     7    29     1    1
     8     1     2   ar
     9     2     3   ar
    10     3     4   ar
    11     4     5   ar
    12     5     6   ar
    13     6     7   ar
    14     7    11    1
    15    11    12   ar
    16    12    13   ar
    17    13    21    1
    18    21    22    1
    19    22    23    1
    20    23    24    1
    21    24    25    1
    22    25    26    1
    23    13    14   ar
    24    14    15   ar
    25    15    16   ar
    26    16    17    1
    27    16    18   ar
    28    18    19   ar
    29    19    20   ar
    30     7     8   ar
    31     8     9   ar
    32     9     1   ar
    33     9     4    1
    34    20    11   ar
    35    26    21    1
    36    20    14   ar
    37    28    31    1
    38     5    10    1
    39    24    27    1
@<TRIPOS>MOLECULE
*****
 35 39 0 0 0
SMALL
GASTEIGER

@<TRIPOS>ATOM
      1 C         139.8049  140.7590  158.8365 C.ar    1  UNL1        0.0930
      2 C         138.6018  140.4401  157.9993 C.ar    1  UNL1        0.1067
      3 N         137.4681  140.1094  158.9242 N.ar    1  UNL1       -0.2252
      4 C         137.9705  140.2239  160.3329 C.ar    1  UNL1        0.1586
      5 N         137.2995  140.0145  161.6580 N.ar    1  UNL1       -0.3349
      6 C         138.0728  140.2066  162.9288 C.ar    1  UNL1        0.0945
      7 C         139.5170  140.6081  162.8746 C.ar    1  UNL1        0.1176
      8 N         140.1880  140.8175  161.5495 N.ar    1  UNL1       -0.2390
      9 C         139.4148  140.6254  160.2787 C.ar    1  UNL1        0.1210
     10 H         136.3516  139.7510  161.6935 H       1  UNL1        0.1675
     11 C         140.2903  140.8001  164.1456 C.ar    1  UNL1        0.1213
     12 N         139.9943  140.1498  165.4645 N.ar    1  UNL1       -0.1678
     13 N         141.0163  140.6239  166.4548 N.ar    1  UNL1       -0.2526
     14 C         141.9439  141.5673  165.7479 C.ar    1  UNL1        0.0815
     15 C         143.1392  142.3412  166.2193 C.ar    1  UNL1        0.0484
     16 C         143.8858  143.2240  165.2637 C.ar    1  UNL1        0.1416
     17 F         145.0812  143.9979  165.7352 F       1  UNL1       -0.2041
     18 C         143.4371  143.3329  163.8365 C.ar    1  UNL1        0.0298
     19 C         142.2418  142.5589  163.3650 C.ar    1  UNL1        0.0054
     20 C         141.4952  141.6762  164.3207 C.ar    1  UNL1        0.0383
     21 C         141.0966  140.2248  167.8985 C.3     1  UNL1        0.1079
     22 C         139.9478  140.5089  168.8202 C.3     1  UNL1        0.0415
     23 C         140.0281  140.1098  170.2638 C.3     1  UNL1        0.0706
     24 N         141.2573  139.4266  170.7858 N.3     1  UNL1       -0.2974
     25 C         142.4061  139.1426  169.8641 C.3     1  UNL1        0.0706
     26 C         142.3258  139.5417  168.4204 C.3     1  UNL1        0.0415
     27 H         140.9563  138.5294  171.1664 H       1  UNL1        0.1232
     28 N         142.1883  141.7023  159.2607 N.am    1  UNL1       -0.3039
     29 C         141.1602  141.1440  158.3218 C.2     1  UNL1        0.2488
     30 O         141.4876  140.9707  156.8683 O.2     1  UNL1       -0.2700
     31 H         141.9735  141.8160  160.2147 H       1  UNL1        0.1496
     32 C         143.0567  143.4864  158.5106 C.3     1  UNL1        0.0196
     33 C         143.5436  142.0872  158.7460 C.3     1  UNL1        0.0572
     34 C         144.0304  140.6881  158.9815 C.3     1  UNL1        0.0196
     35 C         144.8989  142.4722  158.2314 C.3     1  UNL1        0.0196
@<TRIPOS>BOND
     1    32    33    1
     2    33    34    1
     3    33    35    1
     4    33    28    1
     5    28    29   am
     6    29    30    2
     7    29     1    1
     8     1     2   ar
     9     2     3   ar
    10     3     4   ar
    11     4     5   ar
    12     5     6   ar
    13     6     7   ar
    14     7    11    1
    15    11    12   ar
    16    12    13   ar
    17    13    21    1
    18    21    22    1
    19    22    23    1
    20    23    24    1
    21    24    25    1
    22    25    26    1
    23    13    14   ar
    24    14    15   ar
    25    15    16   ar
    26    16    17    1
    27    16    18   ar
    28    18    19   ar
    29    19    20   ar
    30     7     8   ar
    31     8     9   ar
    32     9     1   ar
    33     9     4    1
    34    20    11   ar
    35    26    21    1
    36    20    14   ar
    37    28    31    1
    38     5    10    1
    39    24    27    1
@<TRIPOS>MOLECULE
*****
 35 39 0 0 0
SMALL
GASTEIGER

@<TRIPOS>ATOM
      1 C         142.1194  140.1481  158.6819 C.ar    1  UNL1        0.0930
      2 C         142.5398  139.0180  157.7897 C.ar    1  UNL1        0.1067
      3 N         142.9834  137.8802  158.6607 N.ar    1  UNL1       -0.2252
      4 C         142.8370  138.3071  160.0912 C.ar    1  UNL1        0.1586
      5 N         143.1210  137.6006  161.3836 N.ar    1  UNL1       -0.3349
      6 C         142.8710  138.2958  162.6890 C.ar    1  UNL1        0.0945
      7 C         142.3370  139.6975  162.7021 C.ar    1  UNL1        0.1176
      8 N         142.0530  140.4040  161.4098 N.ar    1  UNL1       -0.2390
      9 C         142.3030  139.7088  160.1043 C.ar    1  UNL1        0.1210
     10 H         143.4714  136.6806  161.3750 H       1  UNL1        0.1675
     11 C         142.0870  140.3926  164.0076 C.ar    1  UNL1        0.1213
     12 N         142.7444  140.0721  165.3172 N.ar    1  UNL1       -0.1678
     13 N         142.1995  141.0117  166.3517 N.ar    1  UNL1       -0.2526
     14 C         141.2052  141.9129  165.6814 C.ar    1  UNL1        0.0815
     15 C         140.3541  143.0326  166.2030 C.ar    1  UNL1        0.0484
     16 C         139.4336  143.7695  165.2761 C.ar    1  UNL1        0.1416
     17 F         138.5825  144.8892  165.7978 F       1  UNL1       -0.2041
     18 C         139.3641  143.3869  163.8273 C.ar    1  UNL1        0.0298
     19 C         140.2151  142.2673  163.3056 C.ar    1  UNL1        0.0054
     20 C         141.1357  141.5303  164.2327 C.ar    1  UNL1        0.0383
     21 C         142.5816  141.0443  167.8018 C.3     1  UNL1        0.1079
     22 C         143.2498  142.2592  168.3742 C.3     1  UNL1        0.0415
     23 C         143.6320  142.2919  169.8243 C.3     1  UNL1        0.0706
     24 N         143.3460  141.1096  170.7021 N.3     1  UNL1       -0.2974
     25 C         142.6778  139.8947  170.1297 C.3     1  UNL1        0.0706
     26 C         142.2956  139.8621  168.6796 C.3     1  UNL1        0.0415
     27 H         142.7510  141.4431  171.4605 H       1  UNL1        0.1232
     28 N         141.7455  142.6811  159.1229 N.am    1  UNL1       -0.3039
     29 C         141.6055  141.4832  158.2309 C.2     1  UNL1        0.2488
     30 O         140.9516  141.6206  156.8880 O.2     1  UNL1       -0.2700
     31 H         142.1746  142.5910  160.0044 H       1  UNL1        0.1496
     32 C         142.5468  144.2981  158.0080 C.3     1  UNL1        0.0196
     33 C         141.2316  144.0162  158.6719 C.3     1  UNL1        0.0572
     34 C         139.9164  143.7343  159.3359 C.3     1  UNL1        0.0196
     35 C         140.7177  145.3512  158.2209 C.3     1  UNL1        0.0196
@<TRIPOS>BOND
     1    32    33    1
     2    33    34    1
     3    33    35    1
     4    33    28    1
     5    28    29   am
     6    29    30    2
     7    29     1    1
     8     1     2   ar
     9     2     3   ar
    10     3     4   ar
    11     4     5   ar
    12     5     6   ar
    13     6     7   ar
    14     7    11    1
    15    11    12   ar
    16    12    13   ar
    17    13    21    1
    18    21    22    1
    19    22    23    1
    20    23    24    1
    21    24    25    1
    22    25    26    1
    23    13    14   ar
    24    14    15   ar
    25    15    16   ar
    26    16    17    1
    27    16    18   ar
    28    18    19   ar
    29    19    20   ar
    30     7     8   ar
    31     8     9   ar
    32     9     1   ar
    33     9     4    1
    34    20    11   ar
    35    26    21    1
    36    20    14   ar
    37    28    31    1
    38     5    10    1
    39    24    27    1
@<TRIPOS>MOLECULE
*****
 35 39 0 0 0
SMALL
GASTEIGER

@<TRIPOS>ATOM
      1 C         141.3755  143.9947  159.3042 C.ar    1  UNL1        0.0930
      2 C         140.9029  145.1087  158.4178 C.ar    1  UNL1        0.1067
      3 N         139.9896  145.9854  159.2222 N.ar    1  UNL1       -0.2252
      4 C         139.8977  145.4134  160.6058 C.ar    1  UNL1        0.1586
      5 N         139.1448  145.8538  161.8261 N.ar    1  UNL1       -0.3349
      6 C         139.2484  145.0639  163.0970 C.ar    1  UNL1        0.0945
      7 C         140.1050  143.8335  163.1476 C.ar    1  UNL1        0.1176
      8 N         140.8579  143.3931  161.9274 N.ar    1  UNL1       -0.2390
      9 C         140.7543  144.1830  160.6565 C.ar    1  UNL1        0.1210
     10 H         138.5826  146.6613  161.7928 H       1  UNL1        0.1675
     11 C         140.2086  143.0436  164.4186 C.ar    1  UNL1        0.1213
     12 N         141.0103  143.4216  165.6288 N.ar    1  UNL1       -0.1678
     13 N         140.8259  142.3487  166.6607 N.ar    1  UNL1       -0.2526
     14 C         139.9102  141.3076  166.0883 C.ar    1  UNL1        0.0815
     15 C         139.3744  140.0239  166.6497 C.ar    1  UNL1        0.0484
     16 C         138.4573  139.1698  165.8257 C.ar    1  UNL1        0.1416
     17 F         137.9216  137.8861  166.3872 F       1  UNL1       -0.2041
     18 C         138.0758  139.5993  164.4400 C.ar    1  UNL1        0.0298
     19 C         138.6115  140.8829  163.8785 C.ar    1  UNL1        0.0054
     20 C         139.5287  141.7371  164.7026 C.ar    1  UNL1        0.0383
     21 C         141.4479  142.3216  168.0253 C.3     1  UNL1        0.1079
     22 C         140.5848  142.4476  169.2457 C.3     1  UNL1        0.0415
     23 C         141.2068  142.4206  170.6103 C.3     1  UNL1        0.0706
     24 N         142.6919  142.2675  170.7547 N.3     1  UNL1       -0.2974
     25 C         143.5551  142.1415  169.5344 C.3     1  UNL1        0.0706
     26 C         142.9331  142.1686  168.1697 C.3     1  UNL1        0.0415
     27 H         142.8486  141.4290  171.3139 H       1  UNL1        0.1232
     28 N         143.2500  143.0758  157.7575 N.am    1  UNL1       -0.3039
     29 C         142.3060  142.8869  158.9080 C.2     1  UNL1        0.2488
     30 O         142.2926  141.5904  159.6620 O.2     1  UNL1       -0.2700
     31 H         143.2588  143.9267  157.2626 H       1  UNL1        0.1496
     32 C         145.2355  142.5301  158.2674 C.3     1  UNL1        0.0196
     33 C         144.1805  141.9680  157.3613 C.3     1  UNL1        0.0572
     34 C         143.1254  141.4059  156.4552 C.3     1  UNL1        0.0196
     35 C         145.1109  140.8603  156.9650 C.3     1  UNL1        0.0196
@<TRIPOS>BOND
     1    32    33    1
     2    33    34    1
     3    33    35    1
     4    33    28    1
     5    28    29   am
     6    29    30    2
     7    29     1    1
     8     1     2   ar
     9     2     3   ar
    10     3     4   ar
    11     4     5   ar
    12     5     6   ar
    13     6     7   ar
    14     7    11    1
    15    11    12   ar
    16    12    13   ar
    17    13    21    1
    18    21    22    1
    19    22    23    1
    20    23    24    1
    21    24    25    1
    22    25    26    1
    23    13    14   ar
    24    14    15   ar
    25    15    16   ar
    26    16    17    1
    27    16    18   ar
    28    18    19   ar
    29    19    20   ar
    30     7     8   ar
    31     8     9   ar
    32     9     1   ar
    33     9     4    1
    34    20    11   ar
    35    26    21    1
    36    20    14   ar
    37    28    31    1
    38     5    10    1
    39    24    27    1
@<TRIPOS>MOLECULE
*****
 35 39 0 0 0
SMALL
GASTEIGER

@<TRIPOS>ATOM
      1 C         142.6527  134.8124  155.1514 C.ar    1  UNL1        0.0930
      2 C         142.4501  134.9006  153.6678 C.ar    1  UNL1        0.1067
      3 N         142.1064  136.3212  153.3306 N.ar    1  UNL1       -0.2252
      4 C         142.0967  137.1110  154.6058 C.ar    1  UNL1        0.1586
      5 N         141.8240  138.5588  154.8876 N.ar    1  UNL1       -0.3349
      6 C         141.8890  139.0741  156.2948 C.ar    1  UNL1        0.0945
      7 C         142.2266  138.1415  157.4202 C.ar    1  UNL1        0.1176
      8 N         142.4992  136.6937  157.1383 N.ar    1  UNL1       -0.2390
      9 C         142.4343  136.1785  155.7312 C.ar    1  UNL1        0.1210
     10 H         141.6024  139.1708  154.1490 H       1  UNL1        0.1675
     11 C         142.2915  138.6569  158.8274 C.ar    1  UNL1        0.1213
     12 N         143.5137  139.1874  159.5166 N.ar    1  UNL1       -0.1678
     13 N         143.1233  139.5906  160.9076 N.ar    1  UNL1       -0.2526
     14 C         141.6597  139.3092  161.0782 C.ar    1  UNL1        0.0815
     15 C         140.7287  139.5039  162.2380 C.ar    1  UNL1        0.0484
     16 C         139.2838  139.1216  162.1123 C.ar    1  UNL1        0.1416
     17 F         138.3528  139.3163  163.2723 F       1  UNL1       -0.2041
     18 C         138.7697  138.5445  160.8267 C.ar    1  UNL1        0.0298
     19 C         139.7007  138.3498  159.6668 C.ar    1  UNL1        0.0054
     20 C         141.1457  138.7322  159.7926 C.ar    1  UNL1        0.0383
     21 C         144.0360  140.1729  161.9458 C.3     1  UNL1        0.1079
     22 C         144.3510  139.3947  163.1889 C.3     1  UNL1        0.0415
     23 C         145.2638  139.9770  164.2271 C.3     1  UNL1        0.0706
     24 N         145.8615  141.3374  164.0221 N.3     1  UNL1       -0.2974
     25 C         145.5465  142.1155  162.7790 C.3     1  UNL1        0.0706
     26 C         144.6337  141.5333  161.7408 C.3     1  UNL1        0.0415
     27 H         146.8745  141.2208  164.0477 H       1  UNL1        0.1232
     28 N         144.4514  133.2261  156.1507 N.am    1  UNL1       -0.3039
     29 C         143.0108  133.5752  155.9204 C.2     1  UNL1        0.2488
     30 O         141.9286  132.6873  156.4590 O.2     1  UNL1       -0.2700
     31 H         145.1618  133.8089  155.7972 H       1  UNL1        0.1496
     32 C         144.9606  132.8082  158.1671 C.3     1  UNL1        0.0196
     33 C         144.8096  131.9889  156.9197 C.3     1  UNL1        0.0572
     34 C         144.6585  131.1698  155.6722 C.3     1  UNL1        0.0196
     35 C         145.1677  130.7519  157.6886 C.3     1  UNL1        0.0196
@<TRIPOS>BOND
     1    32    33    1
     2    33    34    1
     3    33    35    1
     4    33    28    1
     5    28    29   am
     6    29    30    2
     7    29     1    1
     8     1     2   ar
     9     2     3   ar
    10     3     4   ar
    11     4     5   ar
    12     5     6   ar
    13     6     7   ar
    14     7    11    1
    15    11    12   ar
    16    12    13   ar
    17    13    21    1
    18    21    22    1
    19    22    23    1
    20    23    24    1
    21    24    25    1
    22    25    26    1
    23    13    14   ar
    24    14    15   ar
    25    15    16   ar
    26    16    17    1
    27    16    18   ar
    28    18    19   ar
    29    19    20   ar
    30     7     8   ar
    31     8     9   ar
    32     9     1   ar
    33     9     4    1
    34    20    11   ar
    35    26    21    1
    36    20    14   ar
    37    28    31    1
    38     5    10    1
    39    24    27    1
@<TRIPOS>MOLECULE
*****
 35 39 0 0 0
SMALL
GASTEIGER

@<TRIPOS>ATOM
      1 C         139.3023  140.7738  160.5983 C.ar    1  UNL1        0.0930
      2 C         139.2173  139.7916  159.4678 C.ar    1  UNL1        0.1067
      3 N         139.3263  138.4110  160.0442 N.ar    1  UNL1       -0.2252
      4 C         139.4786  138.5400  161.5309 C.ar    1  UNL1        0.1586
      5 N         139.6289  137.5165  162.6170 N.ar    1  UNL1       -0.3349
      6 C         139.7643  137.9533  164.0456 C.ar    1  UNL1        0.0945
      7 C         139.7494  139.4136  164.3880 C.ar    1  UNL1        0.1176
      8 N         139.5991  140.4371  163.3019 N.ar    1  UNL1       -0.2390
      9 C         139.4637  140.0004  161.8734 C.ar    1  UNL1        0.1210
     10 H         139.6387  136.5580  162.3923 H       1  UNL1        0.1675
     11 C         139.8848  139.8503  165.8167 C.ar    1  UNL1        0.1213
     12 N         140.9550  140.7456  166.3673 N.ar    1  UNL1       -0.1678
     13 N         140.7055  140.9171  167.8364 N.ar    1  UNL1       -0.2526
     14 C         139.4810  140.1277  168.1938 C.ar    1  UNL1        0.0815
     15 C         138.7623  139.9241  169.4945 C.ar    1  UNL1        0.0484
     16 C         137.5365  139.0613  169.5471 C.ar    1  UNL1        0.1416
     17 F         136.8178  138.8578  170.8479 F       1  UNL1       -0.2041
     18 C         137.0292  138.4020  168.2988 C.ar    1  UNL1        0.0298
     19 C         137.7479  138.6056  166.9980 C.ar    1  UNL1        0.0054
     20 C         138.9738  139.4685  166.9455 C.ar    1  UNL1        0.0383
     21 C         141.5348  141.7343  168.7821 C.3     1  UNL1        0.1079
     22 C         140.9288  142.9131  169.4845 C.3     1  UNL1        0.0415
     23 C         141.7580  143.7303  170.4302 C.3     1  UNL1        0.0706
     24 N         143.1933  143.3688  170.6735 N.3     1  UNL1       -0.2974
     25 C         143.7993  142.1900  169.9712 C.3     1  UNL1        0.0706
     26 C         142.9700  141.3728  169.0255 C.3     1  UNL1        0.0415
     27 H         143.2878  143.1958  171.6743 H       1  UNL1        0.1232
     28 N         140.0249  143.1323  161.4143 N.am    1  UNL1       -0.3039
     29 C         139.2371  142.2673  160.4754 C.2     1  UNL1        0.2488
     30 O         138.3844  142.8960  159.4136 O.2     1  UNL1       -0.2700
     31 H         140.5846  142.7197  162.1112 H       1  UNL1        0.1496
     32 C         141.0132  144.5838  160.2244 C.3     1  UNL1        0.0196
     33 C         139.9597  144.6258  161.2914 C.3     1  UNL1        0.0572
     34 C         138.9063  144.6677  162.3584 C.3     1  UNL1        0.0196
     35 C         139.8946  146.1193  161.1684 C.3     1  UNL1        0.0196
@<TRIPOS>BOND
     1    32    33    1
     2    33    34    1
     3    33    35    1
     4    33    28    1
     5    28    29   am
     6    29    30    2
     7    29     1    1
     8     1     2   ar
     9     2     3   ar
    10     3     4   ar
    11     4     5   ar
    12     5     6   ar
    13     6     7   ar
    14     7    11    1
    15    11    12   ar
    16    12    13   ar
    17    13    21    1
    18    21    22    1
    19    22    23    1
    20    23    24    1
    21    24    25    1
    22    25    26    1
    23    13    14   ar
    24    14    15   ar
    25    15    16   ar
    26    16    17    1
    27    16    18   ar
    28    18    19   ar
    29    19    20   ar
    30     7     8   ar
    31     8     9   ar
    32     9     1   ar
    33     9     4    1
    34    20    11   ar
    35    26    21    1
    36    20    14   ar
    37    28    31    1
    38     5    10    1
    39    24    27    1
@<TRIPOS>MOLECULE
*****
 35 39 0 0 0
SMALL
GASTEIGER

@<TRIPOS>ATOM
      1 C         139.4632  143.6096  157.8508 C.ar    1  UNL1        0.0930
      2 C         139.7437  144.8622  157.0747 C.ar    1  UNL1        0.1067
      3 N         140.6364  145.7334  157.9078 N.ar    1  UNL1       -0.2252
      4 C         140.9076  145.0193  159.1987 C.ar    1  UNL1        0.1586
      5 N         141.7211  145.3947  160.4018 N.ar    1  UNL1       -0.3349
      6 C         141.8095  144.4574  161.5695 C.ar    1  UNL1        0.0945
      7 C         141.0843  143.1448  161.5343 C.ar    1  UNL1        0.1176
      8 N         140.2708  142.7694  160.3313 N.ar    1  UNL1       -0.2390
      9 C         140.1825  143.7067  159.1635 C.ar    1  UNL1        0.1210
     10 H         142.1970  146.2562  160.4249 H       1  UNL1        0.1675
     11 C         141.1727  142.2075  162.7021 C.ar    1  UNL1        0.1213
     12 N         140.0574  141.8666  163.6454 N.ar    1  UNL1       -0.1678
     13 N         140.5872  140.8950  164.6579 N.ar    1  UNL1       -0.2526
     14 C         142.0302  140.6356  164.3405 C.ar    1  UNL1        0.0815
     15 C         143.0613  139.7655  164.9959 C.ar    1  UNL1        0.0484
     16 C         144.4542  139.7065  164.4426 C.ar    1  UNL1        0.1416
     17 F         145.4855  138.8364  165.0981 F       1  UNL1       -0.2041
     18 C         144.8161  140.5177  163.2338 C.ar    1  UNL1        0.0298
     19 C         143.7850  141.3878  162.5784 C.ar    1  UNL1        0.0054
     20 C         142.3920  141.4468  163.1317 C.ar    1  UNL1        0.0383
     21 C         139.8106  140.2893  165.7893 C.3     1  UNL1        0.1079
     22 C         140.1615  140.6306  167.2072 C.3     1  UNL1        0.0415
     23 C         139.3849  140.0249  168.3386 C.3     1  UNL1        0.0706
     24 N         138.2575  139.0779  168.0520 N.3     1  UNL1       -0.2974
     25 C         137.9066  138.7366  166.6341 C.3     1  UNL1        0.0706
     26 C         138.6832  139.3424  165.5027 C.3     1  UNL1        0.0415
     27 H         137.4205  139.4804  168.4737 H       1  UNL1        0.1232
     28 N         138.3681  142.2449  155.9302 N.am    1  UNL1       -0.3039
     29 C         138.6126  142.4615  157.3943 C.2     1  UNL1        0.2488
     30 O         138.0067  141.5300  158.4017 O.2     1  UNL1       -0.2700
     31 H         138.7658  142.8563  155.2690 H       1  UNL1        0.1496
     32 C         136.2996  141.9690  155.5495 C.3     1  UNL1        0.0196
     33 C         137.5175  141.0967  155.4737 C.3     1  UNL1        0.0572
     34 C         138.7356  140.2245  155.3980 C.3     1  UNL1        0.0196
     35 C         136.6670  139.9487  155.0173 C.3     1  UNL1        0.0196
@<TRIPOS>BOND
     1    32    33    1
     2    33    34    1
     3    33    35    1
     4    33    28    1
     5    28    29   am
     6    29    30    2
     7    29     1    1
     8     1     2   ar
     9     2     3   ar
    10     3     4   ar
    11     4     5   ar
    12     5     6   ar
    13     6     7   ar
    14     7    11    1
    15    11    12   ar
    16    12    13   ar
    17    13    21    1
    18    21    22    1
    19    22    23    1
    20    23    24    1
    21    24    25    1
    22    25    26    1
    23    13    14   ar
    24    14    15   ar
    25    15    16   ar
    26    16    17    1
    27    16    18   ar
    28    18    19   ar
    29    19    20   ar
    30     7     8   ar
    31     8     9   ar
    32     9     1   ar
    33     9     4    1
    34    20    11   ar
    35    26    21    1
    36    20    14   ar
    37    28    31    1
    38     5    10    1
    39    24    27    1
