@<TRIPOS>MOLECULE
*****
 31 34 0 0 0
SMALL
GASTEIGER

@<TRIPOS>ATOM
      1 O         138.7514  139.4315  168.1547 O.2     1  UNL1       -0.2699
      2 C         140.0132  140.0392  167.6175 C.2     1  UNL1        0.2494
      3 N         140.4540  139.7363  166.2161 N.am    1  UNL1       -0.2660
      4 C         141.7159  140.3440  165.6789 C.3     1  UNL1        0.1160
      5 C         142.1566  140.0411  164.2775 C.3     1  UNL1        0.1197
      6 N         141.3356  139.1306  163.4133 N.am    1  UNL1       -0.2555
      7 C         140.0738  138.5230  163.9505 C.2     1  UNL1        0.2497
      8 O         139.2527  137.6125  163.0863 O.2     1  UNL1       -0.2727
      9 C         139.6330  138.8258  165.3519 C.3     1  UNL1        0.1799
     10 C         140.8343  140.9497  168.4818 C.ar    1  UNL1        0.0537
     11 C         142.1156  140.4565  169.0859 C.ar    1  UNL1        0.0068
     12 C         142.9366  141.3670  169.9501 C.ar    1  UNL1        0.0298
     13 C         142.4762  142.7707  170.2103 C.ar    1  UNL1        0.1401
     14 F         143.2973  143.6812  171.0746 F       1  UNL1       -0.2042
     15 C         141.1949  143.2639  169.6062 C.ar    1  UNL1        0.0298
     16 C         140.3740  142.3534  168.7420 C.ar    1  UNL1        0.0068
     17 C         141.7764  138.8278  162.0119 C.ar    1  UNL1        0.0541
     18 C         142.9630  137.9416  161.7738 C.ar    1  UNL1        0.0180
     19 C         143.4038  137.6388  160.3723 C.ar    1  UNL1        0.0382
     20 C         142.6579  138.2221  159.2090 C.ar    1  UNL1        0.1386
     21 C         141.4713  139.1083  159.4470 C.ar    1  UNL1        0.0382
     22 C         141.0305  139.4111  160.8484 C.ar    1  UNL1        0.0180
     23 O         143.0987  137.9193  157.8076 O.3     1  UNL1       -0.4754
     24 C         142.4550  136.7999  157.0443 C.3     1  UNL1        0.2068
     25 C         143.2878  135.6564  156.5452 C.3     1  UNL1        0.0646
     26 C         142.7220  134.2673  156.5300 C.3     1  UNL1        0.0759
     27 N         143.5948  133.0982  156.8785 N.3     1  UNL1       -0.2726
     28 C         143.5622  131.7481  156.2257 C.3     1  UNL1        0.0721
     29 C         144.6006  130.8894  156.8846 C.3     1  UNL1        0.0188
     30 C         145.2751  131.7088  157.9447 C.3     1  UNL1        0.0188
     31 C         144.6535  133.0739  157.9408 C.3     1  UNL1        0.0721
@<TRIPOS>BOND
     1     1     2    2
     2     2    10    1
     3    10    11   ar
     4    11    12   ar
     5    12    13   ar
     6    13    14    1
     7    13    15   ar
     8    15    16   ar
     9     2     3   am
    10     3     4    1
    11     4     5    1
    12     5     6    1
    13     6    17    1
    14    17    18   ar
    15    18    19   ar
    16    19    20   ar
    17    20    23    1
    18    23    24    1
    19    24    25    1
    20    25    26    1
    21    26    27    1
    22    27    28    1
    23    28    29    1
    24    29    30    1
    25    30    31    1
    26    20    21   ar
    27    21    22   ar
    28     6     7   am
    29     7     8    2
    30     7     9    1
    31    16    10   ar
    32     9     3    1
    33    22    17   ar
    34    31    27    1
@<TRIPOS>MOLECULE
*****
 31 34 0 0 0
SMALL
GASTEIGER

@<TRIPOS>ATOM
      1 O         138.6395  139.6170  156.9110 O.2     1  UNL1       -0.2699
      2 C         139.7285  139.0624  157.7808 C.2     1  UNL1        0.2494
      3 N         139.6095  139.1419  159.2739 N.am    1  UNL1       -0.2660
      4 C         140.6985  138.5872  160.1436 C.3     1  UNL1        0.1160
      5 C         140.5795  138.6667  161.6368 C.3     1  UNL1        0.1197
      6 N         139.3716  139.3008  162.2602 N.am    1  UNL1       -0.2555
      7 C         138.2825  139.8554  161.3905 C.2     1  UNL1        0.2497
      8 O         137.0746  140.4895  162.0139 O.2     1  UNL1       -0.2727
      9 C         138.4015  139.7760  159.8974 C.3     1  UNL1        0.1799
     10 C         140.9365  138.4283  157.1573 C.ar    1  UNL1        0.0537
     11 C         140.8859  136.9974  156.7101 C.ar    1  UNL1        0.0068
     12 C         142.0939  136.3634  156.0866 C.ar    1  UNL1        0.0298
     13 C         143.3525  137.1602  155.9104 C.ar    1  UNL1        0.1401
     14 F         144.5605  136.5261  155.2869 F       1  UNL1       -0.2042
     15 C         143.4031  138.5911  156.3576 C.ar    1  UNL1        0.0298
     16 C         142.1951  139.2251  156.9811 C.ar    1  UNL1        0.0068
     17 C         139.2526  139.3803  163.7534 C.ar    1  UNL1        0.0541
     18 C         138.9255  138.1497  164.5462 C.ar    1  UNL1        0.0180
     19 C         138.8066  138.2292  166.0395 C.ar    1  UNL1        0.0382
     20 C         139.0147  139.5392  166.7397 C.ar    1  UNL1        0.1386
     21 C         139.3417  140.7698  165.9468 C.ar    1  UNL1        0.0382
     22 C         139.4607  140.6904  164.4537 C.ar    1  UNL1        0.0180
     23 O         138.8957  139.6187  168.2328 O.3     1  UNL1       -0.4754
     24 C         139.9547  140.3169  169.0335 C.3     1  UNL1        0.2068
     25 C         141.3404  139.7468  169.1031 C.3     1  UNL1        0.0646
     26 C         142.4647  140.4166  168.3700 C.3     1  UNL1        0.0759
     27 N         142.6960  140.1191  166.9182 N.3     1  UNL1       -0.2726
     28 C         143.0612  141.1183  165.8608 C.3     1  UNL1        0.0721
     29 C         143.1936  140.3870  164.5579 C.3     1  UNL1        0.0188
     30 C         142.9102  138.9357  164.8100 C.3     1  UNL1        0.0188
     31 C         142.6026  138.7702  166.2688 C.3     1  UNL1        0.0721
@<TRIPOS>BOND
     1     1     2    2
     2     2    10    1
     3    10    11   ar
     4    11    12   ar
     5    12    13   ar
     6    13    14    1
     7    13    15   ar
     8    15    16   ar
     9     2     3   am
    10     3     4    1
    11     4     5    1
    12     5     6    1
    13     6    17    1
    14    17    18   ar
    15    18    19   ar
    16    19    20   ar
    17    20    23    1
    18    23    24    1
    19    24    25    1
    20    25    26    1
    21    26    27    1
    22    27    28    1
    23    28    29    1
    24    29    30    1
    25    30    31    1
    26    20    21   ar
    27    21    22   ar
    28     6     7   am
    29     7     8    2
    30     7     9    1
    31    16    10   ar
    32     9     3    1
    33    22    17   ar
    34    31    27    1
@<TRIPOS>MOLECULE
*****
 31 34 0 0 0
SMALL
GASTEIGER

@<TRIPOS>ATOM
      1 O         138.9295  139.5338  168.3348 O.2     1  UNL1       -0.2699
      2 C         139.8301  140.5524  167.7012 C.2     1  UNL1        0.2494
      3 N         139.8006  140.7589  166.2158 N.am    1  UNL1       -0.2660
      4 C         140.7011  141.7775  165.5822 C.3     1  UNL1        0.1160
      5 C         140.6716  141.9840  164.0967 C.3     1  UNL1        0.1197
      6 N         139.7416  141.1720  163.2450 N.am    1  UNL1       -0.2555
      7 C         138.8410  140.1534  163.8786 C.2     1  UNL1        0.2497
      8 O         137.9109  139.3413  163.0268 O.2     1  UNL1       -0.2727
      9 C         138.8705  139.9469  165.3640 C.3     1  UNL1        0.1799
     10 C         140.7601  141.3645  168.5531 C.ar    1  UNL1        0.0537
     11 C         142.1412  140.8589  168.8478 C.ar    1  UNL1        0.0068
     12 C         143.0712  141.6709  169.6996 C.ar    1  UNL1        0.0298
     13 C         142.6201  142.9886  170.2567 C.ar    1  UNL1        0.1401
     14 F         143.5502  143.8007  171.1085 F       1  UNL1       -0.2042
     15 C         141.2391  143.4942  169.9619 C.ar    1  UNL1        0.0298
     16 C         140.3091  142.6822  169.1101 C.ar    1  UNL1        0.0068
     17 C         139.7121  141.3785  161.7596 C.ar    1  UNL1        0.0541
     18 C         138.6635  142.2577  161.1453 C.ar    1  UNL1        0.0180
     19 C         138.6340  142.4643  159.6598 C.ar    1  UNL1        0.0382
     20 C         139.6531  141.7915  158.7887 C.ar    1  UNL1        0.1386
     21 C         140.7017  140.9123  159.4030 C.ar    1  UNL1        0.0382
     22 C         140.7312  140.7058  160.8884 C.ar    1  UNL1        0.0180
     23 O         139.6236  141.9981  157.3033 O.3     1  UNL1       -0.4754
     24 C         140.6043  142.9305  156.6561 C.3     1  UNL1        0.2068
     25 C         142.0277  142.9675  157.1279 C.3     1  UNL1        0.0646
     26 C         142.5349  144.1562  157.8893 C.3     1  UNL1        0.0759
     27 N         141.9186  144.5215  159.2071 N.3     1  UNL1       -0.2726
     28 C         142.3494  144.0162  160.5521 C.3     1  UNL1        0.0721
     29 C         141.4604  144.6386  161.5876 C.3     1  UNL1        0.0188
     30 C         140.4801  145.5285  160.8826 C.3     1  UNL1        0.0188
     31 C         140.7633  145.4561  159.4114 C.3     1  UNL1        0.0721
@<TRIPOS>BOND
     1     1     2    2
     2     2    10    1
     3    10    11   ar
     4    11    12   ar
     5    12    13   ar
     6    13    14    1
     7    13    15   ar
     8    15    16   ar
     9     2     3   am
    10     3     4    1
    11     4     5    1
    12     5     6    1
    13     6    17    1
    14    17    18   ar
    15    18    19   ar
    16    19    20   ar
    17    20    23    1
    18    23    24    1
    19    24    25    1
    20    25    26    1
    21    26    27    1
    22    27    28    1
    23    28    29    1
    24    29    30    1
    25    30    31    1
    26    20    21   ar
    27    21    22   ar
    28     6     7   am
    29     7     8    2
    30     7     9    1
    31    16    10   ar
    32     9     3    1
    33    22    17   ar
    34    31    27    1
@<TRIPOS>MOLECULE
*****
 31 34 0 0 0
SMALL
GASTEIGER

@<TRIPOS>ATOM
      1 O         143.0827  139.0515  168.1419 O.2     1  UNL1       -0.2699
      2 C         141.9375  139.8760  167.6335 C.2     1  UNL1        0.2494
      3 N         141.5222  139.7771  166.1956 N.am    1  UNL1       -0.2660
      4 C         140.3770  140.6016  165.6872 C.3     1  UNL1        0.1160
      5 C         139.9618  140.5026  164.2491 C.3     1  UNL1        0.1197
      6 N         140.6918  139.5791  163.3196 N.am    1  UNL1       -0.2555
      7 C         141.8371  138.7546  163.8280 C.2     1  UNL1        0.2497
      8 O         142.5672  137.8311  162.8984 O.2     1  UNL1       -0.2727
      9 C         142.2523  138.8535  165.2659 C.3     1  UNL1        0.1799
     10 C         141.2074  140.7995  168.5632 C.ar    1  UNL1        0.0537
     11 C         139.9948  140.3157  169.3017 C.ar    1  UNL1        0.0068
     12 C         139.2648  141.2392  170.2313 C.ar    1  UNL1        0.0298
     13 C         139.7473  142.6466  170.4223 C.ar    1  UNL1        0.1401
     14 F         139.0173  143.5701  171.3519 F       1  UNL1       -0.2042
     15 C         140.9599  143.1304  169.6838 C.ar    1  UNL1        0.0298
     16 C         141.6899  142.2069  168.7542 C.ar    1  UNL1        0.0068
     17 C         140.2766  139.4801  161.8816 C.ar    1  UNL1        0.0541
     18 C         140.5256  140.6278  160.9484 C.ar    1  UNL1        0.0180
     19 C         140.1104  140.5288  159.5103 C.ar    1  UNL1        0.0382
     20 C         139.4462  139.2822  159.0056 C.ar    1  UNL1        0.1386
     21 C         139.1972  138.1345  159.9389 C.ar    1  UNL1        0.0382
     22 C         139.6124  138.2335  161.3768 C.ar    1  UNL1        0.0180
     23 O         139.0310  139.1832  157.5677 O.3     1  UNL1       -0.4754
     24 C         139.9888  138.6464  156.5457 C.3     1  UNL1        0.2068
     25 C         140.7583  137.3897  156.8262 C.3     1  UNL1        0.0646
     26 C         142.2493  137.4422  156.9818 C.3     1  UNL1        0.0759
     27 N         142.8687  138.4042  157.9517 N.3     1  UNL1       -0.2726
     28 C         143.0474  138.1794  159.4240 C.3     1  UNL1        0.0721
     29 C         143.7073  139.3962  160.0019 C.3     1  UNL1        0.0188
     30 C         143.9366  140.3729  158.8867 C.3     1  UNL1        0.0188
     31 C         143.4183  139.7598  157.6197 C.3     1  UNL1        0.0721
@<TRIPOS>BOND
     1     1     2    2
     2     2    10    1
     3    10    11   ar
     4    11    12   ar
     5    12    13   ar
     6    13    14    1
     7    13    15   ar
     8    15    16   ar
     9     2     3   am
    10     3     4    1
    11     4     5    1
    12     5     6    1
    13     6    17    1
    14    17    18   ar
    15    18    19   ar
    16    19    20   ar
    17    20    23    1
    18    23    24    1
    19    24    25    1
    20    25    26    1
    21    26    27    1
    22    27    28    1
    23    28    29    1
    24    29    30    1
    25    30    31    1
    26    20    21   ar
    27    21    22   ar
    28     6     7   am
    29     7     8    2
    30     7     9    1
    31    16    10   ar
    32     9     3    1
    33    22    17   ar
    34    31    27    1
@<TRIPOS>MOLECULE
*****
 31 34 0 0 0
SMALL
GASTEIGER

@<TRIPOS>ATOM
      1 O         143.3483  138.9158  167.9154 O.2     1  UNL1       -0.2699
      2 C         142.1908  139.7323  167.4220 C.2     1  UNL1        0.2494
      3 N         141.7728  139.6487  165.9839 N.am    1  UNL1       -0.2660
      4 C         140.6153  140.4652  165.4906 C.3     1  UNL1        0.1160
      5 C         140.1973  140.3816  164.0523 C.3     1  UNL1        0.1197
      6 N         140.9370  139.4815  163.1075 N.am    1  UNL1       -0.2555
      7 C         142.0945  138.6650  163.6009 C.2     1  UNL1        0.2497
      8 O         142.8341  137.7649  162.6561 O.2     1  UNL1       -0.2727
      9 C         142.5125  138.7486  165.0390 C.3     1  UNL1        0.1799
     10 C         141.4511  140.6325  168.3669 C.ar    1  UNL1        0.0537
     11 C         141.9378  142.0310  168.6063 C.ar    1  UNL1        0.0068
     12 C         141.1982  142.9310  169.5512 C.ar    1  UNL1        0.0298
     13 C         139.9719  142.4326  170.2566 C.ar    1  UNL1        0.1401
     14 F         139.2323  143.3328  171.2015 F       1  UNL1       -0.2042
     15 C         139.4852  141.0342  170.0173 C.ar    1  UNL1        0.0298
     16 C         140.2248  140.1341  169.0724 C.ar    1  UNL1        0.0068
     17 C         140.5190  139.3979  161.6694 C.ar    1  UNL1        0.0541
     18 C         141.3064  140.1197  160.6163 C.ar    1  UNL1        0.0180
     19 C         140.8884  140.0361  159.1781 C.ar    1  UNL1        0.0382
     20 C         139.6831  139.2306  158.7931 C.ar    1  UNL1        0.1386
     21 C         138.8957  138.5088  159.8461 C.ar    1  UNL1        0.0382
     22 C         139.3136  138.5924  161.2843 C.ar    1  UNL1        0.0180
     23 O         139.2651  139.1470  157.3549 O.3     1  UNL1       -0.4754
     24 C         138.4804  140.2654  156.7357 C.3     1  UNL1        0.2068
     25 C         137.5572  141.0917  157.5813 C.3     1  UNL1        0.0646
     26 C         137.9189  142.5065  157.9240 C.3     1  UNL1        0.0759
     27 N         138.5702  142.8166  159.2392 N.3     1  UNL1       -0.2726
     28 C         138.1028  142.3505  160.5861 C.3     1  UNL1        0.0721
     29 C         139.0470  142.8930  161.6177 C.3     1  UNL1        0.0188
     30 C         140.0979  143.6945  160.9083 C.3     1  UNL1        0.0188
     31 C         139.8032  143.6473  159.4383 C.3     1  UNL1        0.0721
@<TRIPOS>BOND
     1     1     2    2
     2     2    10    1
     3    10    11   ar
     4    11    12   ar
     5    12    13   ar
     6    13    14    1
     7    13    15   ar
     8    15    16   ar
     9     2     3   am
    10     3     4    1
    11     4     5    1
    12     5     6    1
    13     6    17    1
    14    17    18   ar
    15    18    19   ar
    16    19    20   ar
    17    20    23    1
    18    23    24    1
    19    24    25    1
    20    25    26    1
    21    26    27    1
    22    27    28    1
    23    28    29    1
    24    29    30    1
    25    30    31    1
    26    20    21   ar
    27    21    22   ar
    28     6     7   am
    29     7     8    2
    30     7     9    1
    31    16    10   ar
    32     9     3    1
    33    22    17   ar
    34    31    27    1
@<TRIPOS>MOLECULE
*****
 31 34 0 0 0
SMALL
GASTEIGER

@<TRIPOS>ATOM
      1 O         144.9255  137.2567  155.3774 O.2     1  UNL1       -0.2699
      2 C         143.6585  136.8660  156.0788 C.2     1  UNL1        0.2494
      3 N         142.9045  137.8809  156.8859 N.am    1  UNL1       -0.2660
      4 C         141.6375  137.4902  157.5874 C.3     1  UNL1        0.1160
      5 C         140.8834  138.5052  158.3945 C.3     1  UNL1        0.1197
      6 N         141.3963  139.9108  158.5000 N.am    1  UNL1       -0.2555
      7 C         142.6633  140.3015  157.7986 C.2     1  UNL1        0.2497
      8 O         143.1763  141.7070  157.9041 O.2     1  UNL1       -0.2727
      9 C         143.4174  139.2866  156.9915 C.3     1  UNL1        0.1799
     10 C         143.1456  135.4604  155.9732 C.ar    1  UNL1        0.0537
     11 C         142.2285  135.0791  154.8492 C.ar    1  UNL1        0.0068
     12 C         141.7156  133.6735  154.7436 C.ar    1  UNL1        0.0298
     13 C         142.1198  132.6492  155.7621 C.ar    1  UNL1        0.1401
     14 F         141.6069  131.2435  155.6565 F       1  UNL1       -0.2042
     15 C         143.0369  133.0304  156.8861 C.ar    1  UNL1        0.0298
     16 C         143.5498  134.4360  156.9917 C.ar    1  UNL1        0.0068
     17 C         140.6423  140.9256  159.3071 C.ar    1  UNL1        0.0541
     18 C         141.1779  141.3774  160.6334 C.ar    1  UNL1        0.0180
     19 C         140.4237  142.3923  161.4405 C.ar    1  UNL1        0.0382
     20 C         139.1341  142.9554  160.9212 C.ar    1  UNL1        0.1386
     21 C         138.5985  142.5037  159.5949 C.ar    1  UNL1        0.0382
     22 C         139.3526  141.4888  158.7878 C.ar    1  UNL1        0.0180
     23 O         138.3800  143.9703  161.7283 O.3     1  UNL1       -0.4754
     24 C         138.1231  143.7285  163.1862 C.3     1  UNL1        0.2068
     25 C         137.3488  142.5196  163.6209 C.3     1  UNL1        0.0646
     26 C         138.0715  141.3167  164.1509 C.3     1  UNL1        0.0759
     27 N         138.4438  140.1970  163.2249 N.3     1  UNL1       -0.2726
     28 C         137.6984  139.7909  161.9882 C.3     1  UNL1        0.0721
     29 C         138.4208  138.6298  161.3719 C.3     1  UNL1        0.0188
     30 C         139.6127  138.3182  162.2277 C.3     1  UNL1        0.0188
     31 C         139.6269  139.2869  163.3729 C.3     1  UNL1        0.0721
@<TRIPOS>BOND
     1     1     2    2
     2     2    10    1
     3    10    11   ar
     4    11    12   ar
     5    12    13   ar
     6    13    14    1
     7    13    15   ar
     8    15    16   ar
     9     2     3   am
    10     3     4    1
    11     4     5    1
    12     5     6    1
    13     6    17    1
    14    17    18   ar
    15    18    19   ar
    16    19    20   ar
    17    20    23    1
    18    23    24    1
    19    24    25    1
    20    25    26    1
    21    26    27    1
    22    27    28    1
    23    28    29    1
    24    29    30    1
    25    30    31    1
    26    20    21   ar
    27    21    22   ar
    28     6     7   am
    29     7     8    2
    30     7     9    1
    31    16    10   ar
    32     9     3    1
    33    22    17   ar
    34    31    27    1
@<TRIPOS>MOLECULE
*****
 31 34 0 0 0
SMALL
GASTEIGER

@<TRIPOS>ATOM
      1 O         145.1054  138.0776  155.5105 O.2     1  UNL1       -0.2699
      2 C         143.7696  137.4993  155.8726 C.2     1  UNL1        0.2494
      3 N         142.8587  138.2417  156.8047 N.am    1  UNL1       -0.2660
      4 C         141.5228  137.6634  157.1668 C.3     1  UNL1        0.1160
      5 C         140.6119  138.4059  158.0990 C.3     1  UNL1        0.1197
      6 N         141.0368  139.7266  158.6692 N.am    1  UNL1       -0.2555
      7 C         142.3727  140.3049  158.3071 C.2     1  UNL1        0.2497
      8 O         142.7976  141.6256  158.8773 O.2     1  UNL1       -0.2727
      9 C         143.2836  139.5625  157.3750 C.3     1  UNL1        0.1799
     10 C         143.3447  136.1785  155.3024 C.ar    1  UNL1        0.0537
     11 C         143.7535  134.9034  155.9782 C.ar    1  UNL1        0.0068
     12 C         143.3286  133.5827  155.4080 C.ar    1  UNL1        0.0298
     13 C         142.4949  133.5372  154.1619 C.ar    1  UNL1        0.1401
     14 F         142.0699  132.2164  153.5917 F       1  UNL1       -0.2042
     15 C         142.0860  134.8123  153.4861 C.ar    1  UNL1        0.0298
     16 C         142.5109  136.1330  154.0563 C.ar    1  UNL1        0.0068
     17 C         140.1259  140.4690  159.6013 C.ar    1  UNL1        0.0541
     18 C         139.3975  141.6902  159.1238 C.ar    1  UNL1        0.0180
     19 C         138.4865  142.4326  160.0561 C.ar    1  UNL1        0.0382
     20 C         138.3040  141.9538  161.4658 C.ar    1  UNL1        0.1386
     21 C         139.0324  140.7326  161.9433 C.ar    1  UNL1        0.0382
     22 C         139.9433  139.9902  161.0112 C.ar    1  UNL1        0.0180
     23 O         137.3931  142.6962  162.3980 O.3     1  UNL1       -0.4754
     24 C         137.7485  142.8251  163.8495 C.3     1  UNL1        0.2068
     25 C         138.0569  144.1738  164.4293 C.3     1  UNL1        0.0646
     26 C         139.4334  144.7532  164.2897 C.3     1  UNL1        0.0759
     27 N         140.0962  144.7961  162.9448 N.3     1  UNL1       -0.2726
     28 C         139.7519  145.7287  161.8215 C.3     1  UNL1        0.0721
     29 C         140.6626  145.4230  160.6695 C.3     1  UNL1        0.0188
     30 C         141.5698  144.3014  161.0808 C.3     1  UNL1        0.0188
     31 C         141.2197  143.9140  162.4870 C.3     1  UNL1        0.0721
@<TRIPOS>BOND
     1     1     2    2
     2     2    10    1
     3    10    11   ar
     4    11    12   ar
     5    12    13   ar
     6    13    14    1
     7    13    15   ar
     8    15    16   ar
     9     2     3   am
    10     3     4    1
    11     4     5    1
    12     5     6    1
    13     6    17    1
    14    17    18   ar
    15    18    19   ar
    16    19    20   ar
    17    20    23    1
    18    23    24    1
    19    24    25    1
    20    25    26    1
    21    26    27    1
    22    27    28    1
    23    28    29    1
    24    29    30    1
    25    30    31    1
    26    20    21   ar
    27    21    22   ar
    28     6     7   am
    29     7     8    2
    30     7     9    1
    31    16    10   ar
    32     9     3    1
    33    22    17   ar
    34    31    27    1
@<TRIPOS>MOLECULE
*****
 31 34 0 0 0
SMALL
GASTEIGER

@<TRIPOS>ATOM
      1 O         144.7884  137.3377  155.6153 O.2     1  UNL1       -0.2699
      2 C         143.3403  136.9534  155.6883 C.2     1  UNL1        0.2494
      3 N         142.4396  137.6108  156.6915 N.am    1  UNL1       -0.2660
      4 C         140.9915  137.2265  156.7646 C.3     1  UNL1        0.1160
      5 C         140.0908  137.8840  157.7679 C.3     1  UNL1        0.1197
      6 N         140.6382  138.9258  158.6980 N.am    1  UNL1       -0.2555
      7 C         142.0863  139.3100  158.6249 C.2     1  UNL1        0.2497
      8 O         142.6336  140.3518  159.5550 O.2     1  UNL1       -0.2727
      9 C         142.9870  138.6526  157.6217 C.3     1  UNL1        0.1799
     10 C         142.7930  135.9116  154.7582 C.ar    1  UNL1        0.0537
     11 C         142.8433  134.4625  155.1421 C.ar    1  UNL1        0.0068
     12 C         142.2959  133.4208  154.2120 C.ar    1  UNL1        0.0298
     13 C         141.6983  133.8282  152.8979 C.ar    1  UNL1        0.1401
     14 F         141.1509  132.7864  151.9677 F       1  UNL1       -0.2042
     15 C         141.6480  135.2773  152.5139 C.ar    1  UNL1        0.0298
     16 C         142.1953  136.3190  153.4441 C.ar    1  UNL1        0.0068
     17 C         139.7374  139.5832  159.7012 C.ar    1  UNL1        0.0541
     18 C         139.2977  138.8299  160.9215 C.ar    1  UNL1        0.0180
     19 C         138.3970  139.4874  161.9247 C.ar    1  UNL1        0.0382
     20 C         137.9360  140.8981  161.7076 C.ar    1  UNL1        0.1386
     21 C         138.3757  141.6515  160.4873 C.ar    1  UNL1        0.0382
     22 C         139.2764  140.9940  159.4841 C.ar    1  UNL1        0.0180
     23 O         137.0352  141.5556  162.7108 O.3     1  UNL1       -0.4754
     24 C         137.5497  142.6839  163.5547 C.3     1  UNL1        0.2068
     25 C         138.9587  142.6541  164.0686 C.3     1  UNL1        0.0646
     26 C         139.2856  141.8899  165.3172 C.3     1  UNL1        0.0759
     27 N         139.3221  140.3906  165.2910 N.3     1  UNL1       -0.2726
     28 C         138.1741  139.4753  165.5977 C.3     1  UNL1        0.0721
     29 C         138.6554  138.0623  165.4498 C.3     1  UNL1        0.0188
     30 C         140.1010  138.1044  165.0516 C.3     1  UNL1        0.0188
     31 C         140.5130  139.5434  164.9534 C.3     1  UNL1        0.0721
@<TRIPOS>BOND
     1     1     2    2
     2     2    10    1
     3    10    11   ar
     4    11    12   ar
     5    12    13   ar
     6    13    14    1
     7    13    15   ar
     8    15    16   ar
     9     2     3   am
    10     3     4    1
    11     4     5    1
    12     5     6    1
    13     6    17    1
    14    17    18   ar
    15    18    19   ar
    16    19    20   ar
    17    20    23    1
    18    23    24    1
    19    24    25    1
    20    25    26    1
    21    26    27    1
    22    27    28    1
    23    28    29    1
    24    29    30    1
    25    30    31    1
    26    20    21   ar
    27    21    22   ar
    28     6     7   am
    29     7     8    2
    30     7     9    1
    31    16    10   ar
    32     9     3    1
    33    22    17   ar
    34    31    27    1
@<TRIPOS>MOLECULE
*****
 31 34 0 0 0
SMALL
GASTEIGER

@<TRIPOS>ATOM
      1 O         143.2763  138.7797  168.0458 O.2     1  UNL1       -0.2699
      2 C         142.4127  139.8684  167.4812 C.2     1  UNL1        0.2494
      3 N         142.3612  140.0921  165.9989 N.am    1  UNL1       -0.2660
      4 C         141.4976  141.1808  165.4342 C.3     1  UNL1        0.1160
      5 C         141.4462  141.4045  163.9518 C.3     1  UNL1        0.1197
      6 N         142.2583  140.5394  163.0342 N.am    1  UNL1       -0.2555
      7 C         143.1219  139.4507  163.5988 C.2     1  UNL1        0.2497
      8 O         143.9340  138.5856  162.6812 O.2     1  UNL1       -0.2727
      9 C         143.1734  139.2270  165.0811 C.3     1  UNL1        0.1799
     10 C         141.6006  140.7335  168.3989 C.ar    1  UNL1        0.0537
     11 C         142.1179  142.0787  168.8146 C.ar    1  UNL1        0.0068
     12 C         141.3058  142.9437  169.7322 C.ar    1  UNL1        0.0298
     13 C         139.9763  142.4635  170.2342 C.ar    1  UNL1        0.1401
     14 F         139.1642  143.3286  171.1520 F       1  UNL1       -0.2042
     15 C         139.4590  141.1184  169.8186 C.ar    1  UNL1        0.0298
     16 C         140.2711  140.2534  168.9009 C.ar    1  UNL1        0.0068
     17 C         142.2068  140.7631  161.5519 C.ar    1  UNL1        0.0541
     18 C         141.3122  139.9161  160.6962 C.ar    1  UNL1        0.0180
     19 C         141.2607  140.1398  159.2138 C.ar    1  UNL1        0.0382
     20 C         142.1039  141.2105  158.5872 C.ar    1  UNL1        0.1386
     21 C         142.9985  142.0575  159.4429 C.ar    1  UNL1        0.0382
     22 C         143.0500  141.8338  160.9252 C.ar    1  UNL1        0.0180
     23 O         142.0524  141.4341  157.1049 O.3     1  UNL1       -0.4754
     24 C         140.8705  142.1245  156.4911 C.3     1  UNL1        0.2068
     25 C         140.7442  143.6166  156.5796 C.3     1  UNL1        0.0646
     26 C         139.6849  144.2294  157.4469 C.3     1  UNL1        0.0759
     27 N         139.4095  143.6628  158.8081 N.3     1  UNL1       -0.2726
     28 C         138.4355  142.5674  159.1266 C.3     1  UNL1        0.0721
     29 C         138.4838  142.3196  160.6052 C.3     1  UNL1        0.0188
     30 C         139.4878  143.2618  161.2006 C.3     1  UNL1        0.0188
     31 C         140.0599  144.0919  160.0899 C.3     1  UNL1        0.0721
@<TRIPOS>BOND
     1     1     2    2
     2     2    10    1
     3    10    11   ar
     4    11    12   ar
     5    12    13   ar
     6    13    14    1
     7    13    15   ar
     8    15    16   ar
     9     2     3   am
    10     3     4    1
    11     4     5    1
    12     5     6    1
    13     6    17    1
    14    17    18   ar
    15    18    19   ar
    16    19    20   ar
    17    20    23    1
    18    23    24    1
    19    24    25    1
    20    25    26    1
    21    26    27    1
    22    27    28    1
    23    28    29    1
    24    29    30    1
    25    30    31    1
    26    20    21   ar
    27    21    22   ar
    28     6     7   am
    29     7     8    2
    30     7     9    1
    31    16    10   ar
    32     9     3    1
    33    22    17   ar
    34    31    27    1
