@<TRIPOS>MOLECULE
*****
 27 30 0 0 0
SMALL
GASTEIGER

@<TRIPOS>ATOM
      1 C         144.4998  141.3409  161.4405 C.3     1  UNL1        0.1205
      2 N         143.3589  141.9879  162.1683 N.am    1  UNL1       -0.2494
      3 C         142.6775  143.1105  161.4435 C.2     1  UNL1        0.2558
      4 O         143.2271  143.4377  160.0866 O.2     1  UNL1       -0.2695
      5 C         141.5191  143.9493  161.8960 C.ar    1  UNL1        0.0884
      6 C         141.1446  144.9697  160.8623 C.ar    1  UNL1        0.0076
      7 C         140.0070  145.9134  161.1178 C.ar    1  UNL1        0.0003
      8 C         139.2440  145.8367  162.4070 C.ar    1  UNL1        0.0031
      9 C         139.6186  144.8163  163.4406 C.ar    1  UNL1        0.0376
     10 C         140.7561  143.8726  163.1851 C.ar    1  UNL1        0.1497
     11 O         140.9631  142.9382  164.3401 O.3     1  UNL1       -0.4519
     12 C         141.9840  141.8497  164.4913 C.ar    1  UNL1        0.1631
     13 C         141.8454  141.1475  165.8095 C.ar    1  UNL1        0.0728
     14 C         142.7731  140.0225  166.1612 C.ar    1  UNL1        0.1316
     15 N         143.8393  139.5996  165.1947 N.ar    1  UNL1       -0.2279
     16 C         143.9779  140.3018  163.8764 C.ar    1  UNL1        0.1182
     17 C         143.0503  141.4268  163.5247 C.ar    1  UNL1        0.1084
     18 N         142.6344  139.3204  167.4795 N.pl3   1  UNL1       -0.3196
     19 H         142.9233  138.3836  167.5710 H       1  UNL1        0.1481
     20 C         142.0557  140.0453  168.6582 C.3     1  UNL1        0.0705
     21 C         140.5891  139.9426  168.9557 C.3     1  UNL1        0.0220
     22 C         140.0104  140.6676  170.1345 C.3     1  UNL1        0.0309
     23 C         140.8983  141.4953  171.0156 C.3     1  UNL1        0.1106
     24 O         140.3195  142.2204  172.1944 O.3     1  UNL1       -0.3845
     25 C         142.3649  141.5981  170.7181 C.3     1  UNL1        0.0309
     26 C         142.9436  140.8731  169.5394 C.3     1  UNL1        0.0220
     27 H         139.3660  142.0491  172.2431 H       1  UNL1        0.2103
@<TRIPOS>BOND
     1     1     2    1
     2     2     3   am
     3     3     4    2
     4     3     5    1
     5     5     6   ar
     6     6     7   ar
     7     7     8   ar
     8     8     9   ar
     9     9    10   ar
    10    10    11    1
    11    11    12    1
    12    12    13   ar
    13    13    14   ar
    14    14    18    1
    15    20    18    1
    16    20    21    1
    17    21    22    1
    18    22    23    1
    19    23    24    1
    20    23    25    1
    21    25    26    1
    22    14    15   ar
    23    15    16   ar
    24    16    17   ar
    25    17     2    1
    26    10     5   ar
    27    17    12   ar
    28    26    20    1
    29    18    19    1
    30    24    27    1
@<TRIPOS>MOLECULE
*****
 27 30 0 0 0
SMALL
GASTEIGER

@<TRIPOS>ATOM
      1 C         138.1008  138.4600  162.1172 C.3     1  UNL1        0.1205
      2 N         138.6833  139.7857  162.5085 N.am    1  UNL1       -0.2494
      3 C         138.9000  140.7580  161.3871 C.2     1  UNL1        0.2558
      4 O         138.5055  140.2759  160.0225 O.2     1  UNL1       -0.2695
      5 C         139.4590  142.1485  161.4496 C.ar    1  UNL1        0.0884
      6 C         139.5062  142.7818  160.0907 C.ar    1  UNL1        0.0076
      7 C         140.0338  144.1769  159.9313 C.ar    1  UNL1        0.0003
      8 C         140.5142  144.9386  161.1309 C.ar    1  UNL1        0.0031
      9 C         140.4670  144.3054  162.4898 C.ar    1  UNL1        0.0376
     10 C         139.9394  142.9103  162.6491 C.ar    1  UNL1        0.1497
     11 O         139.9794  142.4696  164.0824 O.3     1  UNL1       -0.4519
     12 C         139.5489  141.1584  164.6701 C.ar    1  UNL1        0.1631
     13 C         139.7589  141.1281  166.1550 C.ar    1  UNL1        0.0728
     14 C         139.3920  139.9033  166.9395 C.ar    1  UNL1        0.1316
     15 N         138.8152  138.7089  166.2391 N.ar    1  UNL1       -0.2279
     16 C         138.6053  138.7392  164.7541 C.ar    1  UNL1        0.1182
     17 C         138.9721  139.9640  163.9697 C.ar    1  UNL1        0.1084
     18 N         139.6020  139.8731  168.4244 N.pl3   1  UNL1       -0.3196
     19 H         139.1105  139.2241  168.9780 H       1  UNL1        0.1481
     20 C         140.5607  140.8317  169.0660 C.3     1  UNL1        0.0705
     21 C         140.0642  142.1395  169.6075 C.3     1  UNL1        0.0220
     22 C         141.0231  143.0981  170.2491 C.3     1  UNL1        0.0309
     23 C         142.4784  142.7490  170.3492 C.3     1  UNL1        0.1106
     24 O         143.4372  143.7077  170.9909 O.3     1  UNL1       -0.3845
     25 C         142.9749  141.4412  169.8078 C.3     1  UNL1        0.0309
     26 C         142.0162  140.4826  169.1662 C.3     1  UNL1        0.0220
     27 H         142.9568  144.4976  171.2845 H       1  UNL1        0.2103
@<TRIPOS>BOND
     1     1     2    1
     2     2     3   am
     3     3     4    2
     4     3     5    1
     5     5     6   ar
     6     6     7   ar
     7     7     8   ar
     8     8     9   ar
     9     9    10   ar
    10    10    11    1
    11    11    12    1
    12    12    13   ar
    13    13    14   ar
    14    14    18    1
    15    20    18    1
    16    20    21    1
    17    21    22    1
    18    22    23    1
    19    23    24    1
    20    23    25    1
    21    25    26    1
    22    14    15   ar
    23    15    16   ar
    24    16    17   ar
    25    17     2    1
    26    10     5   ar
    27    17    12   ar
    28    26    20    1
    29    18    19    1
    30    24    27    1
@<TRIPOS>MOLECULE
*****
 27 30 0 0 0
SMALL
GASTEIGER

@<TRIPOS>ATOM
      1 C         144.0916  138.3782  161.9192 C.3     1  UNL1        0.1205
      2 N         142.7297  138.7949  162.3895 N.am    1  UNL1       -0.2494
      3 C         141.6899  138.9475  161.3192 C.2     1  UNL1        0.2558
      4 O         142.1496  138.6632  159.9200 O.2     1  UNL1       -0.2695
      5 C         140.2511  139.3468  161.4630 C.ar    1  UNL1        0.0884
      6 C         139.5556  139.3779  160.1344 C.ar    1  UNL1        0.0076
      7 C         138.1058  139.7544  160.0555 C.ar    1  UNL1        0.0003
      8 C         137.3515  140.0998  161.3052 C.ar    1  UNL1        0.0031
      9 C         138.0470  140.0687  162.6338 C.ar    1  UNL1        0.0376
     10 C         139.4969  139.6922  162.7127 C.ar    1  UNL1        0.1497
     11 O         139.9950  139.7235  164.1272 O.3     1  UNL1       -0.4519
     12 C         141.3704  139.4173  164.6415 C.ar    1  UNL1        0.1631
     13 C         141.4450  139.5700  166.1318 C.ar    1  UNL1        0.0728
     14 C         142.7365  139.3096  166.8488 C.ar    1  UNL1        0.1316
     15 N         143.9535  138.8963  166.0755 N.ar    1  UNL1       -0.2279
     16 C         143.8790  138.7435  164.5851 C.ar    1  UNL1        0.1182
     17 C         142.5874  139.0040  163.8681 C.ar    1  UNL1        0.1084
     18 N         142.8110  139.4624  168.3391 N.pl3   1  UNL1       -0.3196
     19 H         143.4427  138.9149  168.8591 H       1  UNL1        0.1481
     20 C         141.9229  140.4492  169.0372 C.3     1  UNL1        0.0705
     21 C         142.3292  141.8903  169.1284 C.3     1  UNL1        0.0220
     22 C         141.4410  142.8771  169.8265 C.3     1  UNL1        0.0309
     23 C         140.1467  142.4229  170.4334 C.3     1  UNL1        0.1106
     24 O         139.2586  143.4099  171.1315 O.3     1  UNL1       -0.3845
     25 C         139.7404  140.9819  170.3422 C.3     1  UNL1        0.0309
     26 C         140.6285  139.9950  169.6441 C.3     1  UNL1        0.0220
     27 H         139.6658  144.2897  171.1005 H       1  UNL1        0.2103
@<TRIPOS>BOND
     1     1     2    1
     2     2     3   am
     3     3     4    2
     4     3     5    1
     5     5     6   ar
     6     6     7   ar
     7     7     8   ar
     8     8     9   ar
     9     9    10   ar
    10    10    11    1
    11    11    12    1
    12    12    13   ar
    13    13    14   ar
    14    14    18    1
    15    20    18    1
    16    20    21    1
    17    21    22    1
    18    22    23    1
    19    23    24    1
    20    23    25    1
    21    25    26    1
    22    14    15   ar
    23    15    16   ar
    24    16    17   ar
    25    17     2    1
    26    10     5   ar
    27    17    12   ar
    28    26    20    1
    29    18    19    1
    30    24    27    1
@<TRIPOS>MOLECULE
*****
 27 30 0 0 0
SMALL
GASTEIGER

@<TRIPOS>ATOM
      1 C         139.9746  145.0576  163.1459 C.3     1  UNL1        0.1205
      2 N         139.5803  143.7266  162.5778 N.am    1  UNL1       -0.2494
      3 C         139.3650  143.6902  161.0938 C.2     1  UNL1        0.2558
      4 O         139.5725  144.9898  160.3741 O.2     1  UNL1       -0.2695
      5 C         138.9696  142.5262  160.2343 C.ar    1  UNL1        0.0884
      6 C         138.8623  142.9219  158.7914 C.ar    1  UNL1        0.0076
      7 C         138.4773  141.9023  157.7608 C.ar    1  UNL1        0.0003
      8 C         138.1996  140.4871  158.1731 C.ar    1  UNL1        0.0031
      9 C         138.3069  140.0914  159.6159 C.ar    1  UNL1        0.0376
     10 C         138.6919  141.1110  160.6465 C.ar    1  UNL1        0.1497
     11 O         138.7409  140.5103  162.0201 O.3     1  UNL1       -0.4519
     12 C         139.0798  141.1763  163.3207 C.ar    1  UNL1        0.1631
     13 C         139.0104  140.2099  164.4658 C.ar    1  UNL1        0.0728
     14 C         139.3146  140.6749  165.8591 C.ar    1  UNL1        0.1316
     15 N         139.6881  142.1062  166.1073 N.ar    1  UNL1       -0.2279
     16 C         139.7575  143.0727  164.9622 C.ar    1  UNL1        0.1182
     17 C         139.4533  142.6077  163.5689 C.ar    1  UNL1        0.1084
     18 N         139.2452  139.7085  167.0041 N.pl3   1  UNL1       -0.3196
     19 H         138.6730  138.9099  166.9402 H       1  UNL1        0.1481
     20 C         140.0475  139.9587  168.2465 C.3     1  UNL1        0.0705
     21 C         139.3608  140.3886  169.5089 C.3     1  UNL1        0.0220
     22 C         140.1632  140.6388  170.7513 C.3     1  UNL1        0.0309
     23 C         141.6522  140.4591  170.7314 C.3     1  UNL1        0.1106
     24 O         142.4545  140.7093  171.9739 O.3     1  UNL1       -0.3845
     25 C         142.3389  140.0292  169.4690 C.3     1  UNL1        0.0309
     26 C         141.5366  139.7790  168.2266 C.3     1  UNL1        0.0220
     27 H         141.8616  140.9779  172.6930 H       1  UNL1        0.2103
@<TRIPOS>BOND
     1     1     2    1
     2     2     3   am
     3     3     4    2
     4     3     5    1
     5     5     6   ar
     6     6     7   ar
     7     7     8   ar
     8     8     9   ar
     9     9    10   ar
    10    10    11    1
    11    11    12    1
    12    12    13   ar
    13    13    14   ar
    14    14    18    1
    15    20    18    1
    16    20    21    1
    17    21    22    1
    18    22    23    1
    19    23    24    1
    20    23    25    1
    21    25    26    1
    22    14    15   ar
    23    15    16   ar
    24    16    17   ar
    25    17     2    1
    26    10     5   ar
    27    17    12   ar
    28    26    20    1
    29    18    19    1
    30    24    27    1
@<TRIPOS>MOLECULE
*****
 27 30 0 0 0
SMALL
GASTEIGER

@<TRIPOS>ATOM
      1 C         144.6077  142.3949  161.2577 C.3     1  UNL1        0.1205
      2 N         143.4520  141.6366  161.8402 N.am    1  UNL1       -0.2494
      3 C         142.6277  140.8537  160.8616 C.2     1  UNL1        0.2558
      4 O         143.0682  140.9326  159.4299 O.2     1  UNL1       -0.2695
      5 C         141.4213  140.0022  161.1252 C.ar    1  UNL1        0.0884
      6 C         140.8948  139.3911  159.8606 C.ar    1  UNL1        0.0076
      7 C         139.6881  138.5011  159.9035 C.ar    1  UNL1        0.0003
      8 C         139.0079  138.2223  161.2110 C.ar    1  UNL1        0.0031
      9 C         139.5344  138.8334  162.4756 C.ar    1  UNL1        0.0376
     10 C         140.7411  139.7234  162.4328 C.ar    1  UNL1        0.1497
     11 O         141.0994  140.2271  163.7995 O.3     1  UNL1       -0.4519
     12 C         142.2263  141.1341  164.1963 C.ar    1  UNL1        0.1631
     13 C         142.2280  141.3919  165.6739 C.ar    1  UNL1        0.0728
     14 C         143.2767  142.2770  166.2796 C.ar    1  UNL1        0.1316
     15 N         144.3237  142.9042  165.4077 N.ar    1  UNL1       -0.2279
     16 C         144.3220  142.6464  163.9300 C.ar    1  UNL1        0.1182
     17 C         143.2733  141.7613  163.3243 C.ar    1  UNL1        0.1084
     18 N         143.2783  142.5348  167.7573 N.pl3   1  UNL1       -0.3196
     19 H         143.8766  143.2182  168.1371 H       1  UNL1        0.1481
     20 C         142.3685  141.7513  168.6563 C.3     1  UNL1        0.0705
     21 C         142.7654  140.3788  169.1131 C.3     1  UNL1        0.0220
     22 C         141.8555  139.5953  170.0122 C.3     1  UNL1        0.0309
     23 C         140.5489  140.1843  170.4545 C.3     1  UNL1        0.1106
     24 O         139.6390  139.4007  171.3536 O.3     1  UNL1       -0.3845
     25 C         140.1520  141.5569  169.9977 C.3     1  UNL1        0.0309
     26 C         141.0618  142.3403  169.0987 C.3     1  UNL1        0.0220
     27 H         140.0426  138.5414  171.5525 H       1  UNL1        0.2103
@<TRIPOS>BOND
     1     1     2    1
     2     2     3   am
     3     3     4    2
     4     3     5    1
     5     5     6   ar
     6     6     7   ar
     7     7     8   ar
     8     8     9   ar
     9     9    10   ar
    10    10    11    1
    11    11    12    1
    12    12    13   ar
    13    13    14   ar
    14    14    18    1
    15    20    18    1
    16    20    21    1
    17    21    22    1
    18    22    23    1
    19    23    24    1
    20    23    25    1
    21    25    26    1
    22    14    15   ar
    23    15    16   ar
    24    16    17   ar
    25    17     2    1
    26    10     5   ar
    27    17    12   ar
    28    26    20    1
    29    18    19    1
    30    24    27    1
@<TRIPOS>MOLECULE
*****
 27 30 0 0 0
SMALL
GASTEIGER

@<TRIPOS>ATOM
      1 C         138.8288  139.4145  162.2405 C.3     1  UNL1        0.1205
      2 N         139.2685  140.8474  162.1830 N.am    1  UNL1       -0.2494
      3 C         139.3424  141.4511  160.8119 C.2     1  UNL1        0.2558
      4 O         138.9668  140.5420  159.6794 O.2     1  UNL1       -0.2695
      5 C         139.7422  142.8437  160.4233 C.ar    1  UNL1        0.0884
      6 C         139.6794  143.0374  158.9372 C.ar    1  UNL1        0.0076
      7 C         140.0413  144.3639  158.3379 C.ar    1  UNL1        0.0003
      8 C         140.4659  145.4968  159.2246 C.ar    1  UNL1        0.0031
      9 C         140.5287  145.3031  160.7107 C.ar    1  UNL1        0.0376
     10 C         140.1668  143.9766  161.3100 C.ar    1  UNL1        0.1497
     11 O         140.2965  143.9966  162.8043 O.3     1  UNL1       -0.4519
     12 C         140.0337  142.8889  163.7809 C.ar    1  UNL1        0.1631
     13 C         140.2872  143.3304  165.1918 C.ar    1  UNL1        0.0728
     14 C         140.0833  142.3704  166.3262 C.ar    1  UNL1        0.1316
     15 N         139.6258  140.9690  166.0498 N.ar    1  UNL1       -0.2279
     16 C         139.3722  140.5274  164.6388 C.ar    1  UNL1        0.1182
     17 C         139.5762  141.4873  163.5044 C.ar    1  UNL1        0.1084
     18 N         140.3369  142.8121  167.7371 N.pl3   1  UNL1       -0.3196
     19 H         139.9294  143.6427  168.0737 H       1  UNL1        0.1481
     20 C         141.2112  141.9883  168.6353 C.3     1  UNL1        0.0705
     21 C         142.6110  142.4357  168.9356 C.3     1  UNL1        0.0220
     22 C         143.4854  141.6118  169.8338 C.3     1  UNL1        0.0309
     23 C         142.9598  140.3405  170.4317 C.3     1  UNL1        0.1106
     24 O         143.8343  139.5166  171.3299 O.3     1  UNL1       -0.3845
     25 C         141.5600  139.8930  170.1314 C.3     1  UNL1        0.0309
     26 C         140.6857  140.7169  169.2332 C.3     1  UNL1        0.0220
     27 H         144.7004  139.9441  171.4187 H       1  UNL1        0.2103
@<TRIPOS>BOND
     1     1     2    1
     2     2     3   am
     3     3     4    2
     4     3     5    1
     5     5     6   ar
     6     6     7   ar
     7     7     8   ar
     8     8     9   ar
     9     9    10   ar
    10    10    11    1
    11    11    12    1
    12    12    13   ar
    13    13    14   ar
    14    14    18    1
    15    20    18    1
    16    20    21    1
    17    21    22    1
    18    22    23    1
    19    23    24    1
    20    23    25    1
    21    25    26    1
    22    14    15   ar
    23    15    16   ar
    24    16    17   ar
    25    17     2    1
    26    10     5   ar
    27    17    12   ar
    28    26    20    1
    29    18    19    1
    30    24    27    1
@<TRIPOS>MOLECULE
*****
 27 30 0 0 0
SMALL
GASTEIGER

@<TRIPOS>ATOM
      1 C         140.2457  143.8972  161.1085 C.3     1  UNL1        0.1205
      2 N         140.9047  142.6896  161.7062 N.am    1  UNL1       -0.2494
      3 C         141.5239  141.7352  160.7285 C.2     1  UNL1        0.2558
      4 O         141.4022  142.1148  159.2825 O.2     1  UNL1       -0.2695
      5 C         142.2487  140.4515  161.0056 C.ar    1  UNL1        0.0884
      6 C         142.7126  139.7993  159.7371 C.ar    1  UNL1        0.0076
      7 C         143.4612  138.5006  159.7918 C.ar    1  UNL1        0.0003
      8 C         143.7458  137.8542  161.1152 C.ar    1  UNL1        0.0031
      9 C         143.2819  138.5064  162.3837 C.ar    1  UNL1        0.0376
     10 C         142.5333  139.8051  162.3289 C.ar    1  UNL1        0.1497
     11 O         142.1634  140.2828  163.7019 O.3     1  UNL1       -0.4519
     12 C         141.4176  141.5248  164.0908 C.ar    1  UNL1        0.1631
     13 C         141.2584  141.6252  165.5789 C.ar    1  UNL1        0.0728
     14 C         140.5390  142.7968  166.1788 C.ar    1  UNL1        0.1316
     15 N         139.9788  143.8679  165.2907 N.ar    1  UNL1       -0.2279
     16 C         140.1380  143.7674  163.8025 C.ar    1  UNL1        0.1182
     17 C         140.8574  142.5959  163.2025 C.ar    1  UNL1        0.1084
     18 N         140.3799  142.8971  167.6670 N.pl3   1  UNL1       -0.3196
     19 H         139.7151  143.5138  168.0504 H       1  UNL1        0.1481
     20 C         141.2335  142.0580  168.5709 C.3     1  UNL1        0.0705
     21 C         140.7171  140.7476  169.0866 C.3     1  UNL1        0.0220
     22 C         141.5708  139.9084  169.9905 C.3     1  UNL1        0.0309
     23 C         142.9408  140.3798  170.3787 C.3     1  UNL1        0.1106
     24 O         143.7945  139.5406  171.2827 O.3     1  UNL1       -0.3845
     25 C         143.4573  141.6902  169.8630 C.3     1  UNL1        0.0309
     26 C         142.6036  142.5294  168.9591 C.3     1  UNL1        0.0220
     27 H         143.3144  138.7325  171.5224 H       1  UNL1        0.2103
@<TRIPOS>BOND
     1     1     2    1
     2     2     3   am
     3     3     4    2
     4     3     5    1
     5     5     6   ar
     6     6     7   ar
     7     7     8   ar
     8     8     9   ar
     9     9    10   ar
    10    10    11    1
    11    11    12    1
    12    12    13   ar
    13    13    14   ar
    14    14    18    1
    15    20    18    1
    16    20    21    1
    17    21    22    1
    18    22    23    1
    19    23    24    1
    20    23    25    1
    21    25    26    1
    22    14    15   ar
    23    15    16   ar
    24    16    17   ar
    25    17     2    1
    26    10     5   ar
    27    17    12   ar
    28    26    20    1
    29    18    19    1
    30    24    27    1
@<TRIPOS>MOLECULE
*****
 27 30 0 0 0
SMALL
GASTEIGER

@<TRIPOS>ATOM
      1 C         140.0766  146.0093  161.7708 C.3     1  UNL1        0.1205
      2 N         140.7822  144.6909  161.6523 N.am    1  UNL1       -0.2494
      3 C         141.5827  144.4914  160.3996 C.2     1  UNL1        0.2558
      4 O         141.5719  145.6367  159.4310 O.2     1  UNL1       -0.2695
      5 C         142.3928  143.2981  159.9873 C.ar    1  UNL1        0.0884
      6 C         143.0405  143.5105  158.6512 C.ar    1  UNL1        0.0076
      7 C         143.8978  142.4343  158.0539 C.ar    1  UNL1        0.0003
      8 C         144.1073  141.1457  158.7926 C.ar    1  UNL1        0.0031
      9 C         143.4595  140.9333  160.1287 C.ar    1  UNL1        0.0376
     10 C         142.6022  142.0095  160.7261 C.ar    1  UNL1        0.1497
     11 O         142.0534  141.5960  162.0594 O.3     1  UNL1       -0.4519
     12 C         141.1597  142.3689  162.9835 C.ar    1  UNL1        0.1631
     13 C         140.8432  141.5852  164.2227 C.ar    1  UNL1        0.0728
     14 C         139.9610  142.1788  165.2807 C.ar    1  UNL1        0.1316
     15 N         139.3953  143.5561  165.0995 N.ar    1  UNL1       -0.2279
     16 C         139.7117  144.3399  163.8602 C.ar    1  UNL1        0.1182
     17 C         140.5939  143.7463  162.8022 C.ar    1  UNL1        0.1084
     18 N         139.6447  141.3950  166.5198 N.pl3   1  UNL1       -0.3196
     19 H         138.7454  141.0146  166.6454 H       1  UNL1        0.1481
     20 C         140.6984  141.1909  167.5676 C.3     1  UNL1        0.0705
     21 C         141.8511  142.1454  167.6681 C.3     1  UNL1        0.0220
     22 C         142.9048  141.9412  168.7159 C.3     1  UNL1        0.0309
     23 C         142.8058  140.7825  169.6633 C.3     1  UNL1        0.1106
     24 O         143.8596  140.5784  170.7112 O.3     1  UNL1       -0.3845
     25 C         141.6531  139.8280  169.5629 C.3     1  UNL1        0.0309
     26 C         140.5994  140.0321  168.5151 C.3     1  UNL1        0.0220
     27 H         144.5273  141.2783  170.6389 H       1  UNL1        0.2103
@<TRIPOS>BOND
     1     1     2    1
     2     2     3   am
     3     3     4    2
     4     3     5    1
     5     5     6   ar
     6     6     7   ar
     7     7     8   ar
     8     8     9   ar
     9     9    10   ar
    10    10    11    1
    11    11    12    1
    12    12    13   ar
    13    13    14   ar
    14    14    18    1
    15    20    18    1
    16    20    21    1
    17    21    22    1
    18    22    23    1
    19    23    24    1
    20    23    25    1
    21    25    26    1
    22    14    15   ar
    23    15    16   ar
    24    16    17   ar
    25    17     2    1
    26    10     5   ar
    27    17    12   ar
    28    26    20    1
    29    18    19    1
    30    24    27    1
@<TRIPOS>MOLECULE
*****
 27 30 0 0 0
SMALL
GASTEIGER

@<TRIPOS>ATOM
      1 C         138.0519  140.0001  161.6051 C.3     1  UNL1        0.1205
      2 N         139.3989  140.5022  162.0333 N.am    1  UNL1       -0.2494
      3 C         140.3129  140.9385  160.9268 C.2     1  UNL1        0.2558
      4 O         139.7589  140.8150  159.5383 O.2     1  UNL1       -0.2695
      5 C         141.7075  141.4820  161.0251 C.ar    1  UNL1        0.0884
      6 C         142.2698  141.7966  159.6706 C.ar    1  UNL1        0.0076
      7 C         143.6573  142.3526  159.5452 C.ar    1  UNL1        0.0003
      8 C         144.4824  142.5940  160.7744 C.ar    1  UNL1        0.0031
      9 C         143.9201  142.2794  162.1289 C.ar    1  UNL1        0.0376
     10 C         142.5326  141.7234  162.2543 C.ar    1  UNL1        0.1497
     11 O         142.1669  141.4810  163.6887 O.3     1  UNL1       -0.4519
     12 C         140.8858  140.9372  164.2483 C.ar    1  UNL1        0.1631
     13 C         140.9334  140.8535  165.7451 C.ar    1  UNL1        0.0728
     14 C         139.7491  140.3343  166.5053 C.ar    1  UNL1        0.1316
     15 N         138.5173  139.8987  165.7686 N.ar    1  UNL1       -0.2279
     16 C         138.4697  139.9824  164.2717 C.ar    1  UNL1        0.1182
     17 C         139.6539  140.5016  163.5115 C.ar    1  UNL1        0.1084
     18 N         139.7968  140.2506  168.0022 N.pl3   1  UNL1       -0.3196
     19 H         139.2198  139.6105  168.4781 H       1  UNL1        0.1481
     20 C         140.7237  141.1422  168.7741 C.3     1  UNL1        0.0705
     21 C         142.0766  140.6417  169.1853 C.3     1  UNL1        0.0220
     22 C         143.0034  141.5334  169.9572 C.3     1  UNL1        0.0309
     23 C         142.5773  142.9256  170.3179 C.3     1  UNL1        0.1106
     24 O         143.5043  143.8173  171.0899 O.3     1  UNL1       -0.3845
     25 C         141.2245  143.4262  169.9067 C.3     1  UNL1        0.0309
     26 C         140.2976  142.5345  169.1348 C.3     1  UNL1        0.0220
     27 H         144.3303  143.3432  171.2740 H       1  UNL1        0.2103
@<TRIPOS>BOND
     1     1     2    1
     2     2     3   am
     3     3     4    2
     4     3     5    1
     5     5     6   ar
     6     6     7   ar
     7     7     8   ar
     8     8     9   ar
     9     9    10   ar
    10    10    11    1
    11    11    12    1
    12    12    13   ar
    13    13    14   ar
    14    14    18    1
    15    20    18    1
    16    20    21    1
    17    21    22    1
    18    22    23    1
    19    23    24    1
    20    23    25    1
    21    25    26    1
    22    14    15   ar
    23    15    16   ar
    24    16    17   ar
    25    17     2    1
    26    10     5   ar
    27    17    12   ar
    28    26    20    1
    29    18    19    1
    30    24    27    1
