@<TRIPOS>MOLECULE
*****
 27 30 0 0 0
SMALL
GASTEIGER

@<TRIPOS>ATOM
      1 C         140.7919  142.0199  167.3065 C.3     1  UNL1        0.0070
      2 C         142.1314  141.3470  167.3593 C.3     1  UNL1        0.0163
      3 C         143.0628  141.6191  168.5031 C.3     1  UNL1        0.0578
      4 C         143.6369  142.1666  169.7762 C.3     1  UNL1        0.0173
      5 C         142.6280  143.1008  170.3755 C.3     1  UNL1        0.0173
      6 C         141.4303  143.1307  169.4729 C.3     1  UNL1        0.0578
      7 C         140.3838  142.9651  168.3975 C.3     1  UNL1        0.0163
      8 N         141.6990  142.2149  168.3157 N.3     1  UNL1       -0.2716
      9 C         139.8603  141.7478  166.1626 C.3     1  UNL1        0.0264
     10 C         139.3009  138.2932  164.2911 C.ar    1  UNL1        0.0528
     11 C         138.5053  137.5410  165.3164 C.ar    1  UNL1        0.0045
     12 C         138.1614  138.1911  166.6237 C.ar    1  UNL1       -0.0002
     13 C         138.6130  139.5933  166.9057 C.ar    1  UNL1       -0.0043
     14 C         139.4086  140.3455  165.8805 C.ar    1  UNL1       -0.0220
     15 C         139.7526  139.6955  164.5732 C.ar    1  UNL1        0.0002
     16 N         138.6678  137.6830  161.8464 N.am    1  UNL1       -0.3253
     17 C         139.6449  137.6432  162.9838 C.2     1  UNL1        0.2427
     18 O         140.9660  136.9532  162.8139 O.2     1  UNL1       -0.2704
     19 H         138.8936  137.2563  160.9884 H       1  UNL1        0.1453
     20 H         137.8007  138.1358  161.9579 H       1  UNL1        0.1453
     21 C         140.7676  141.9428  167.1719 C.3     1  UNL1        0.0991
     22 C         140.6254  142.9457  166.0655 C.ar    1  UNL1       -0.0061
     23 C         139.3676  143.7537  165.9427 C.ar    1  UNL1       -0.0029
     24 C         139.2254  144.7565  164.8364 C.ar    1  UNL1       -0.0003
     25 C         140.3410  144.9513  163.8528 C.ar    1  UNL1       -0.0000
     26 C         141.5988  144.1433  163.9755 C.ar    1  UNL1       -0.0003
     27 C         141.7409  143.1404  165.0819 C.ar    1  UNL1       -0.0029
@<TRIPOS>BOND
     1    16    17   am
     2    17    18    2
     3    17    10    1
     4    10    11   ar
     5    11    12   ar
     6    12    13   ar
     7    13    14   ar
     8    14     9    1
     9     1     9    1
    10     1     2    1
    11     3     2    1
    12     3     4    1
    13     4     5    1
    14     6     5    1
    15     6     7    1
    16     6     8    1
    17     8    21    1
    18    21    22    1
    19    22    23   ar
    20    23    24   ar
    21    24    25   ar
    22    25    26   ar
    23    26    27   ar
    24    14    15   ar
    25    15    10   ar
    26     7     1    1
    27    27    22   ar
    28     8     3    1
    29    16    19    1
    30    16    20    1
@<TRIPOS>MOLECULE
*****
 27 30 0 0 0
SMALL
GASTEIGER

@<TRIPOS>ATOM
      1 C         141.6180  142.2944  165.8966 C.3     1  UNL1        0.0070
      2 C         140.5333  143.1658  165.3362 C.3     1  UNL1        0.0163
      3 C         140.8777  144.2756  164.3877 C.3     1  UNL1        0.0578
      4 C         141.6538  145.2181  163.5163 C.3     1  UNL1        0.0173
      5 C         143.1052  144.8526  163.6157 C.3     1  UNL1        0.0173
      6 C         143.2261  143.6842  164.5486 C.3     1  UNL1        0.0578
      7 C         143.0472  142.5328  165.5084 C.3     1  UNL1        0.0163
      8 N         141.8495  143.3276  165.0257 N.3     1  UNL1       -0.2716
      9 C         141.2735  141.1846  166.8452 C.3     1  UNL1        0.0264
     10 C         139.5489  138.3120  164.7183 C.ar    1  UNL1        0.0528
     11 C         138.3799  137.9731  165.5950 C.ar    1  UNL1        0.0045
     12 C         138.1755  138.7047  166.8884 C.ar    1  UNL1       -0.0002
     13 C         139.1400  139.7751  167.3051 C.ar    1  UNL1       -0.0043
     14 C         140.3090  140.1141  166.4284 C.ar    1  UNL1       -0.0220
     15 C         140.5135  139.3825  165.1350 C.ar    1  UNL1        0.0002
     16 N         138.6677  137.5693  162.3898 N.am    1  UNL1       -0.3253
     17 C         139.7533  137.5804  163.4249 C.2     1  UNL1        0.2427
     18 O         141.0434  136.8599  163.1665 O.2     1  UNL1       -0.2704
     19 H         138.8019  137.0892  161.5409 H       1  UNL1        0.1453
     20 H         137.8210  138.0422  162.5594 H       1  UNL1        0.1453
     21 C         141.5050  142.2178  165.9742 C.3     1  UNL1        0.0991
     22 C         141.7318  142.3922  167.4467 C.ar    1  UNL1       -0.0061
     23 C         143.0342  141.9708  168.0600 C.ar    1  UNL1       -0.0029
     24 C         143.2610  142.1452  169.5324 C.ar    1  UNL1       -0.0003
     25 C         142.1854  142.7410  170.3916 C.ar    1  UNL1       -0.0000
     26 C         140.8829  143.1624  169.7782 C.ar    1  UNL1       -0.0003
     27 C         140.6562  142.9879  168.3057 C.ar    1  UNL1       -0.0029
@<TRIPOS>BOND
     1    16    17   am
     2    17    18    2
     3    17    10    1
     4    10    11   ar
     5    11    12   ar
     6    12    13   ar
     7    13    14   ar
     8    14     9    1
     9     1     9    1
    10     1     2    1
    11     3     2    1
    12     3     4    1
    13     4     5    1
    14     6     5    1
    15     6     7    1
    16     6     8    1
    17     8    21    1
    18    21    22    1
    19    22    23   ar
    20    23    24   ar
    21    24    25   ar
    22    25    26   ar
    23    26    27   ar
    24    14    15   ar
    25    15    10   ar
    26     7     1    1
    27    27    22   ar
    28     8     3    1
    29    16    19    1
    30    16    20    1
@<TRIPOS>MOLECULE
*****
 27 30 0 0 0
SMALL
GASTEIGER

@<TRIPOS>ATOM
      1 C         142.0094  142.0717  164.8059 C.3     1  UNL1        0.0070
      2 C         143.2386  142.7947  165.2709 C.3     1  UNL1        0.0163
      3 C         144.5743  142.4640  164.6737 C.3     1  UNL1        0.0578
      4 C         145.6442  141.8325  163.8332 C.3     1  UNL1        0.0173
      5 C         144.9960  140.8067  162.9515 C.3     1  UNL1        0.0173
      6 C         143.5254  140.8042  163.2470 C.3     1  UNL1        0.0578
      7 C         142.1158  141.0179  163.7437 C.3     1  UNL1        0.0163
      8 N         143.2647  141.8285  164.3114 N.3     1  UNL1       -0.2716
      9 C         140.6737  142.4024  165.4031 C.3     1  UNL1        0.0264
     10 C         140.0541  142.1420  169.3144 C.ar    1  UNL1        0.0528
     11 C         139.5341  140.7395  169.4263 C.ar    1  UNL1        0.0045
     12 C         139.3940  139.8913  168.1972 C.ar    1  UNL1       -0.0002
     13 C         139.7739  140.4456  166.8562 C.ar    1  UNL1       -0.0043
     14 C         140.2938  141.8481  166.7442 C.ar    1  UNL1       -0.0220
     15 C         140.4340  142.6963  167.9733 C.ar    1  UNL1        0.0002
     16 N         140.1146  144.4844  170.4369 N.am    1  UNL1       -0.3253
     17 C         140.1942  142.9903  170.5436 C.2     1  UNL1        0.2427
     18 O         140.4140  142.3444  171.8795 O.2     1  UNL1       -0.2704
     19 H         140.2066  145.0411  171.2436 H       1  UNL1        0.1453
     20 H         139.9704  144.9083  169.5601 H       1  UNL1        0.1453
     21 C         141.9291  142.1592  164.9086 C.3     1  UNL1        0.0991
     22 C         140.9166  142.9214  164.1061 C.ar    1  UNL1       -0.0061
     23 C         139.8688  142.1842  163.3260 C.ar    1  UNL1       -0.0029
     24 C         138.8564  142.9464  162.5235 C.ar    1  UNL1       -0.0003
     25 C         138.8918  144.4458  162.5011 C.ar    1  UNL1       -0.0000
     26 C         139.9397  145.1831  163.2813 C.ar    1  UNL1       -0.0003
     27 C         140.9521  144.4208  164.0837 C.ar    1  UNL1       -0.0029
@<TRIPOS>BOND
     1    16    17   am
     2    17    18    2
     3    17    10    1
     4    10    11   ar
     5    11    12   ar
     6    12    13   ar
     7    13    14   ar
     8    14     9    1
     9     1     9    1
    10     1     2    1
    11     3     2    1
    12     3     4    1
    13     4     5    1
    14     6     5    1
    15     6     7    1
    16     6     8    1
    17     8    21    1
    18    21    22    1
    19    22    23   ar
    20    23    24   ar
    21    24    25   ar
    22    25    26   ar
    23    26    27   ar
    24    14    15   ar
    25    15    10   ar
    26     7     1    1
    27    27    22   ar
    28     8     3    1
    29    16    19    1
    30    16    20    1
@<TRIPOS>MOLECULE
*****
 27 30 0 0 0
SMALL
GASTEIGER

@<TRIPOS>ATOM
      1 C         139.3538  141.2980  165.5906 C.3     1  UNL1        0.0070
      2 C         140.1692  142.5551  165.6601 C.3     1  UNL1        0.0163
      3 C         139.7337  143.7743  164.9025 C.3     1  UNL1        0.0578
      4 C         138.9510  144.7029  164.0221 C.3     1  UNL1        0.0173
      5 C         137.7581  143.9552  163.5045 C.3     1  UNL1        0.0173
      6 C         137.8035  142.5646  164.0650 C.3     1  UNL1        0.0578
      7 C         138.1029  141.2602  164.7635 C.3     1  UNL1        0.0163
      8 N         139.0246  142.4528  164.9291 N.3     1  UNL1       -0.2716
      9 C         139.7892  140.0787  166.3482 C.3     1  UNL1        0.0264
     10 C         141.7134  140.4801  169.7957 C.ar    1  UNL1        0.0528
     11 C         140.5814  140.3410  170.7701 C.ar    1  UNL1        0.0045
     12 C         139.1854  140.1145  170.2704 C.ar    1  UNL1       -0.0002
     13 C         138.9213  140.0271  168.7965 C.ar    1  UNL1       -0.0043
     14 C         140.0533  140.1662  167.8222 C.ar    1  UNL1       -0.0220
     15 C         141.4493  140.3926  168.3218 C.ar    1  UNL1        0.0002
     16 N         143.7351  139.7265  171.2431 N.am    1  UNL1       -0.3253
     17 C         143.1095  140.7066  170.2954 C.2     1  UNL1        0.2427
     18 O         143.8799  141.9132  169.8475 O.2     1  UNL1       -0.2704
     19 H         144.6514  139.8752  171.5710 H       1  UNL1        0.1453
     20 H         143.2295  138.9346  171.5371 H       1  UNL1        0.1453
     21 C         139.4600  141.2336  165.6866 C.3     1  UNL1        0.0991
     22 C         139.7949  139.9716  164.9482 C.ar    1  UNL1       -0.0061
     23 C         138.8075  138.8432  164.9053 C.ar    1  UNL1       -0.0029
     24 C         139.1424  137.5813  164.1669 C.ar    1  UNL1       -0.0003
     25 C         140.4646  137.4477  163.4713 C.ar    1  UNL1       -0.0000
     26 C         141.4521  138.5761  163.5142 C.ar    1  UNL1       -0.0003
     27 C         141.1171  139.8381  164.2527 C.ar    1  UNL1       -0.0029
@<TRIPOS>BOND
     1    16    17   am
     2    17    18    2
     3    17    10    1
     4    10    11   ar
     5    11    12   ar
     6    12    13   ar
     7    13    14   ar
     8    14     9    1
     9     1     9    1
    10     1     2    1
    11     3     2    1
    12     3     4    1
    13     4     5    1
    14     6     5    1
    15     6     7    1
    16     6     8    1
    17     8    21    1
    18    21    22    1
    19    22    23   ar
    20    23    24   ar
    21    24    25   ar
    22    25    26   ar
    23    26    27   ar
    24    14    15   ar
    25    15    10   ar
    26     7     1    1
    27    27    22   ar
    28     8     3    1
    29    16    19    1
    30    16    20    1
@<TRIPOS>MOLECULE
*****
 27 30 0 0 0
SMALL
GASTEIGER

@<TRIPOS>ATOM
      1 C         140.0202  140.8022  165.1482 C.3     1  UNL1        0.0070
      2 C         139.0149  139.7764  165.5807 C.3     1  UNL1        0.0163
      3 C         138.7978  138.5439  164.7538 C.3     1  UNL1        0.0578
      4 C         138.9113  137.5178  163.6656 C.3     1  UNL1        0.0173
      5 C         139.9468  137.9907  162.6888 C.3     1  UNL1        0.0173
      6 C         140.4733  139.3090  163.1734 C.3     1  UNL1        0.0578
      7 C         140.8084  140.5954  163.8889 C.3     1  UNL1        0.0163
      8 N         139.7631  139.6509  164.4496 N.3     1  UNL1       -0.2716
      9 C         140.2373  142.0348  165.9752 C.3     1  UNL1        0.0264
     10 C         141.2090  141.4881  169.7839 C.ar    1  UNL1        0.0528
     11 C         142.6737  141.8101  169.7518 C.ar    1  UNL1        0.0045
     12 C         143.3262  142.2069  168.4608 C.ar    1  UNL1       -0.0002
     13 C         142.5141  142.2818  167.2020 C.ar    1  UNL1       -0.0043
     14 C         141.0495  141.9599  167.2341 C.ar    1  UNL1       -0.0220
     15 C         140.3969  141.5630  168.5250 C.ar    1  UNL1        0.0002
     16 N         140.0285  139.6984  171.2513 N.am    1  UNL1       -0.3253
     17 C         140.5565  141.0913  171.0749 C.2     1  UNL1        0.2427
     18 O         140.4319  142.0874  172.1896 O.2     1  UNL1       -0.2704
     19 H         139.6002  139.4380  172.0987 H       1  UNL1        0.1453
     20 H         140.1102  139.0447  170.5198 H       1  UNL1        0.1453
     21 C         139.9802  140.8834  165.2765 C.3     1  UNL1        0.0991
     22 C         139.6173  142.2303  164.7248 C.ar    1  UNL1       -0.0061
     23 C         138.1801  142.6560  164.6704 C.ar    1  UNL1       -0.0029
     24 C         137.8172  144.0028  164.1187 C.ar    1  UNL1       -0.0003
     25 C         138.8916  144.9239  163.6215 C.ar    1  UNL1       -0.0000
     26 C         140.3290  144.4982  163.6759 C.ar    1  UNL1       -0.0003
     27 C         140.6917  143.1513  164.2276 C.ar    1  UNL1       -0.0029
@<TRIPOS>BOND
     1    16    17   am
     2    17    18    2
     3    17    10    1
     4    10    11   ar
     5    11    12   ar
     6    12    13   ar
     7    13    14   ar
     8    14     9    1
     9     1     9    1
    10     1     2    1
    11     3     2    1
    12     3     4    1
    13     4     5    1
    14     6     5    1
    15     6     7    1
    16     6     8    1
    17     8    21    1
    18    21    22    1
    19    22    23   ar
    20    23    24   ar
    21    24    25   ar
    22    25    26   ar
    23    26    27   ar
    24    14    15   ar
    25    15    10   ar
    26     7     1    1
    27    27    22   ar
    28     8     3    1
    29    16    19    1
    30    16    20    1
@<TRIPOS>MOLECULE
*****
 27 30 0 0 0
SMALL
GASTEIGER

@<TRIPOS>ATOM
      1 C         142.3836  141.5360  165.8716 C.3     1  UNL1        0.0070
      2 C         143.3458  142.5604  165.3477 C.3     1  UNL1        0.0163
      3 C         144.5613  142.1261  164.5836 C.3     1  UNL1        0.0578
      4 C         145.5909  141.2700  163.9076 C.3     1  UNL1        0.0173
      5 C         145.1816  139.8362  164.0715 C.3     1  UNL1        0.0173
      6 C         143.8990  139.8062  164.8488 C.3     1  UNL1        0.0578
      7 C         142.6369  140.0771  165.6315 C.3     1  UNL1        0.0163
      8 N         143.5157  141.2215  165.1653 N.3     1  UNL1       -0.2716
      9 C         141.1679  141.9703  166.6357 C.3     1  UNL1        0.0264
     10 C         138.2945  142.8640  164.0484 C.ar    1  UNL1        0.0528
     11 C         137.8790  144.2178  164.5427 C.ar    1  UNL1        0.0045
     12 C         138.5597  144.8225  165.7347 C.ar    1  UNL1       -0.0002
     13 C         139.6560  144.0733  166.4323 C.ar    1  UNL1       -0.0043
     14 C         140.0716  142.7195  165.9380 C.ar    1  UNL1       -0.0220
     15 C         139.3909  142.1148  164.7461 C.ar    1  UNL1        0.0002
     16 N         136.9372  140.9258  162.9754 N.am    1  UNL1       -0.3253
     17 C         137.6137  142.2593  162.8564 C.2     1  UNL1        0.2427
     18 O         137.6095  142.9881  161.5452 O.2     1  UNL1       -0.2704
     19 H         136.4903  140.5290  162.1930 H       1  UNL1        0.1453
     20 H         136.9399  140.4475  163.8358 H       1  UNL1        0.1453
     21 C         142.3002  141.6558  165.9294 C.3     1  UNL1        0.0991
     22 C         142.2175  141.4144  167.4075 C.ar    1  UNL1       -0.0061
     23 C         141.3872  140.2831  167.9374 C.ar    1  UNL1       -0.0029
     24 C         141.3045  140.0417  169.4155 C.ar    1  UNL1       -0.0003
     25 C         142.0521  140.9316  170.3637 C.ar    1  UNL1       -0.0000
     26 C         142.8824  142.0630  169.8338 C.ar    1  UNL1       -0.0003
     27 C         142.9650  142.3043  168.3557 C.ar    1  UNL1       -0.0029
@<TRIPOS>BOND
     1    16    17   am
     2    17    18    2
     3    17    10    1
     4    10    11   ar
     5    11    12   ar
     6    12    13   ar
     7    13    14   ar
     8    14     9    1
     9     1     9    1
    10     1     2    1
    11     3     2    1
    12     3     4    1
    13     4     5    1
    14     6     5    1
    15     6     7    1
    16     6     8    1
    17     8    21    1
    18    21    22    1
    19    22    23   ar
    20    23    24   ar
    21    24    25   ar
    22    25    26   ar
    23    26    27   ar
    24    14    15   ar
    25    15    10   ar
    26     7     1    1
    27    27    22   ar
    28     8     3    1
    29    16    19    1
    30    16    20    1
@<TRIPOS>MOLECULE
*****
 27 30 0 0 0
SMALL
GASTEIGER

@<TRIPOS>ATOM
      1 C         140.4491  141.6135  166.6269 C.3     1  UNL1        0.0070
      2 C         139.8059  140.3297  167.0605 C.3     1  UNL1        0.0163
      3 C         139.4107  140.1358  168.4945 C.3     1  UNL1        0.0578
      4 C         139.1938  140.3748  169.9593 C.3     1  UNL1        0.0173
      5 C         139.7083  141.7453  170.2864 C.3     1  UNL1        0.0173
      6 C         140.2432  142.3533  169.0238 C.3     1  UNL1        0.0578
      7 C         140.6970  142.7035  167.6272 C.3     1  UNL1        0.0163
      8 N         140.0593  141.3585  167.9163 N.3     1  UNL1       -0.2716
      9 C         140.8443  141.8075  165.1929 C.3     1  UNL1        0.0264
     10 C         142.8591  139.0880  163.1205 C.ar    1  UNL1        0.0528
     11 C         144.2713  139.4573  163.4660 C.ar    1  UNL1        0.0045
     12 C         144.5411  140.6099  164.3872 C.ar    1  UNL1       -0.0002
     13 C         143.3988  141.3933  164.9628 C.ar    1  UNL1       -0.0043
     14 C         141.9867  141.0241  164.6172 C.ar    1  UNL1       -0.0220
     15 C         141.7168  139.8714  163.6961 C.ar    1  UNL1        0.0002
     16 N         143.6715  137.4320  161.2908 N.am    1  UNL1       -0.3253
     17 C         142.5893  137.9354  162.1993 C.2     1  UNL1        0.2427
     18 O         141.2371  137.2859  162.1867 O.2     1  UNL1       -0.2704
     19 H         143.4944  136.6755  160.6862 H       1  UNL1        0.1453
     20 H         144.5589  137.8582  161.2991 H       1  UNL1        0.1453
     21 C         140.4545  141.5524  166.4823 C.3     1  UNL1        0.0991
     22 C         139.5996  142.3866  165.5749 C.ar    1  UNL1       -0.0061
     23 C         138.4569  141.7580  164.8338 C.ar    1  UNL1       -0.0029
     24 C         137.6021  142.5921  163.9265 C.ar    1  UNL1       -0.0003
     25 C         137.8898  144.0548  163.7602 C.ar    1  UNL1       -0.0000
     26 C         139.0325  144.6835  164.5013 C.ar    1  UNL1       -0.0003
     27 C         139.8874  143.8492  165.4087 C.ar    1  UNL1       -0.0029
@<TRIPOS>BOND
     1    16    17   am
     2    17    18    2
     3    17    10    1
     4    10    11   ar
     5    11    12   ar
     6    12    13   ar
     7    13    14   ar
     8    14     9    1
     9     1     9    1
    10     1     2    1
    11     3     2    1
    12     3     4    1
    13     4     5    1
    14     6     5    1
    15     6     7    1
    16     6     8    1
    17     8    21    1
    18    21    22    1
    19    22    23   ar
    20    23    24   ar
    21    24    25   ar
    22    25    26   ar
    23    26    27   ar
    24    14    15   ar
    25    15    10   ar
    26     7     1    1
    27    27    22   ar
    28     8     3    1
    29    16    19    1
    30    16    20    1
@<TRIPOS>MOLECULE
*****
 27 30 0 0 0
SMALL
GASTEIGER

@<TRIPOS>ATOM
      1 C         140.2479  141.7827  165.9383 C.3     1  UNL1        0.0070
      2 C         139.3028  140.8837  165.1976 C.3     1  UNL1        0.0163
      3 C         138.2381  141.4738  164.3211 C.3     1  UNL1        0.0578
      4 C         137.3728  142.4610  163.5954 C.3     1  UNL1        0.0173
      5 C         137.8494  143.8397  163.9446 C.3     1  UNL1        0.0173
      6 C         139.0093  143.7046  164.8862 C.3     1  UNL1        0.0578
      7 C         140.1283  143.2718  165.8024 C.3     1  UNL1        0.0163
      8 N         139.2495  142.2424  165.1188 N.3     1  UNL1       -0.2716
      9 C         141.3126  141.1926  166.8148 C.3     1  UNL1        0.0264
     10 C         144.3718  140.2872  164.4546 C.ar    1  UNL1        0.0528
     11 C         144.7415  138.9308  164.9774 C.ar    1  UNL1        0.0045
     12 C         143.9682  138.3283  166.1128 C.ar    1  UNL1       -0.0002
     13 C         142.8253  139.0823  166.7252 C.ar    1  UNL1       -0.0043
     14 C         142.4556  140.4387  166.2024 C.ar    1  UNL1       -0.0220
     15 C         143.2288  141.0412  165.0670 C.ar    1  UNL1        0.0002
     16 N         146.2497  141.8654  163.5983 N.am    1  UNL1       -0.3253
     17 C         145.1451  140.8897  163.3192 C.2     1  UNL1        0.2427
     18 O         144.8139  140.5164  161.9046 O.2     1  UNL1       -0.2704
     19 H         146.7572  142.2608  162.8532 H       1  UNL1        0.1453
     20 H         146.4671  142.1104  164.5268 H       1  UNL1        0.1453
     21 C         140.3142  141.6523  165.9953 C.3     1  UNL1        0.0991
     22 C         140.1678  141.6981  167.4875 C.ar    1  UNL1       -0.0061
     23 C         139.5843  140.5265  168.2202 C.ar    1  UNL1       -0.0029
     24 C         139.4380  140.5723  169.7122 C.ar    1  UNL1       -0.0003
     25 C         139.8752  141.7897  170.4717 C.ar    1  UNL1       -0.0000
     26 C         140.4588  142.9614  169.7390 C.ar    1  UNL1       -0.0003
     27 C         140.6051  142.9155  168.2469 C.ar    1  UNL1       -0.0029
@<TRIPOS>BOND
     1    16    17   am
     2    17    18    2
     3    17    10    1
     4    10    11   ar
     5    11    12   ar
     6    12    13   ar
     7    13    14   ar
     8    14     9    1
     9     1     9    1
    10     1     2    1
    11     3     2    1
    12     3     4    1
    13     4     5    1
    14     6     5    1
    15     6     7    1
    16     6     8    1
    17     8    21    1
    18    21    22    1
    19    22    23   ar
    20    23    24   ar
    21    24    25   ar
    22    25    26   ar
    23    26    27   ar
    24    14    15   ar
    25    15    10   ar
    26     7     1    1
    27    27    22   ar
    28     8     3    1
    29    16    19    1
    30    16    20    1
@<TRIPOS>MOLECULE
*****
 27 30 0 0 0
SMALL
GASTEIGER

@<TRIPOS>ATOM
      1 C         140.9272  140.8911  167.4956 C.3     1  UNL1        0.0070
      2 C         140.3555  141.6267  168.6712 C.3     1  UNL1        0.0163
      3 C         140.9433  141.4298  170.0371 C.3     1  UNL1        0.0578
      4 C         141.8111  140.9449  171.1605 C.3     1  UNL1        0.0173
      5 C         142.8105  139.9819  170.5915 C.3     1  UNL1        0.0173
      6 C         142.5604  139.8715  169.1167 C.3     1  UNL1        0.0578
      7 C         142.0866  139.9586  167.6859 C.3     1  UNL1        0.0163
      8 N         141.4063  140.7664  168.7740 N.3     1  UNL1       -0.2716
      9 C         140.3394  141.0880  166.1296 C.3     1  UNL1        0.0264
     10 C         142.1773  143.8605  163.9652 C.ar    1  UNL1        0.0528
     11 C         141.1074  144.9083  163.8790 C.ar    1  UNL1        0.0045
     12 C         139.7814  144.6825  164.5431 C.ar    1  UNL1       -0.0002
     13 C         139.5255  143.4092  165.2932 C.ar    1  UNL1       -0.0043
     14 C         140.5954  142.3614  165.3794 C.ar    1  UNL1       -0.0220
     15 C         141.9213  142.5871  164.7154 C.ar    1  UNL1        0.0002
     16 N         143.8648  145.4503  162.7926 N.am    1  UNL1       -0.3253
     17 C         143.5032  144.0862  163.3012 C.2     1  UNL1        0.2427
     18 O         144.4677  142.9478  163.1458 O.2     1  UNL1       -0.2704
     19 H         144.7351  145.5984  162.3568 H       1  UNL1        0.1453
     20 H         143.2319  146.1974  162.8946 H       1  UNL1        0.1453
     21 C         140.8186  140.9633  167.4081 C.3     1  UNL1        0.0991
     22 C         140.1086  139.8311  166.7268 C.ar    1  UNL1       -0.0061
     23 C         140.7950  139.0632  165.6363 C.ar    1  UNL1       -0.0029
     24 C         140.0850  137.9311  164.9550 C.ar    1  UNL1       -0.0003
     25 C         138.6886  137.5669  165.3642 C.ar    1  UNL1       -0.0000
     26 C         138.0021  138.3349  166.4547 C.ar    1  UNL1       -0.0003
     27 C         138.7122  139.4670  167.1359 C.ar    1  UNL1       -0.0029
@<TRIPOS>BOND
     1    16    17   am
     2    17    18    2
     3    17    10    1
     4    10    11   ar
     5    11    12   ar
     6    12    13   ar
     7    13    14   ar
     8    14     9    1
     9     1     9    1
    10     1     2    1
    11     3     2    1
    12     3     4    1
    13     4     5    1
    14     6     5    1
    15     6     7    1
    16     6     8    1
    17     8    21    1
    18    21    22    1
    19    22    23   ar
    20    23    24   ar
    21    24    25   ar
    22    25    26   ar
    23    26    27   ar
    24    14    15   ar
    25    15    10   ar
    26     7     1    1
    27    27    22   ar
    28     8     3    1
    29    16    19    1
    30    16    20    1
