@<TRIPOS>MOLECULE
*****
 34 37 0 0 0
SMALL
GASTEIGER

@<TRIPOS>ATOM
      1 C         138.0975  141.3547  164.8115 C.3     1  UNL1        0.0312
      2 C         138.6796  140.0389  164.3872 C.ar    1  UNL1       -0.0161
      3 C         138.9343  139.7650  162.9347 C.ar    1  UNL1        0.0106
      4 C         139.5164  138.4493  162.5104 C.ar    1  UNL1        0.0502
      5 C         139.8438  137.4075  163.5387 C.ar    1  UNL1        0.0148
      6 C         139.5891  137.6814  164.9913 C.ar    1  UNL1        0.0057
      7 C         139.0070  138.9971  165.4155 C.ar    1  UNL1        0.0513
      8 C         138.7523  139.2711  166.8682 C.ar    1  UNL1        0.2509
      9 N         137.6715  138.6540  167.7055 N.ar    1  UNL1       -0.1058
     10 N         137.7849  139.2117  169.0933 N.ar    1  UNL1       -0.0923
     11 C         138.9358  140.1735  169.1138 C.ar    1  UNL1        0.3086
     12 O         139.5337  140.2102  167.7386 O.2     1  UNL1       -0.4049
     13 N         139.4062  140.9604  170.3010 N.pl3   1  UNL1       -0.2871
     14 H         138.8625  141.7059  170.6443 H       1  UNL1        0.1512
     15 C         140.7052  140.6115  170.9651 C.3     1  UNL1        0.0925
     16 C         141.8830  141.5317  170.8388 C.3     1  UNL1        0.0386
     17 C         143.0548  141.1377  169.9893 C.3     1  UNL1        0.0738
     18 N         142.8565  140.8276  168.5351 N.3     1  UNL1       -0.2726
     19 C         142.7137  141.9434  167.5429 C.3     1  UNL1        0.0721
     20 C         142.5154  141.6332  166.0888 C.3     1  UNL1        0.0174
     21 C         142.4598  140.2072  165.6269 C.3     1  UNL1        0.0029
     22 C         142.6026  139.0914  166.6191 C.3     1  UNL1        0.0174
     23 C         142.8009  139.4015  168.0733 C.3     1  UNL1        0.0721
     24 N         139.7712  138.1754  161.0577 N.am    1  UNL1       -0.2803
     25 C         140.9531  138.7958  160.3735 C.2     1  UNL1        0.2517
     26 O         141.8803  139.6901  161.1421 O.2     1  UNL1       -0.2697
     27 H         139.1626  137.5884  160.5534 H       1  UNL1        0.1552
     28 C         141.2079  138.5219  158.9210 C.ar    1  UNL1        0.0811
     29 C         142.5012  137.8951  158.4915 C.ar    1  UNL1        0.0068
     30 C         142.7559  137.6213  157.0388 C.ar    1  UNL1        0.0003
     31 C         141.7173  137.9742  156.0157 C.ar    1  UNL1        0.0023
     32 C         140.4240  138.6010  156.4452 C.ar    1  UNL1        0.0298
     33 C         140.1693  138.8749  157.8978 C.ar    1  UNL1        0.1445
     34 F         138.8760  139.5017  158.3273 F       1  UNL1       -0.2040
@<TRIPOS>BOND
     1     1     2    1
     2     2     3   ar
     3     3     4   ar
     4     4    24    1
     5    24    25   am
     6    25    26    2
     7    25    28    1
     8    28    29   ar
     9    29    30   ar
    10    30    31   ar
    11    31    32   ar
    12    32    33   ar
    13    33    34    1
    14     4     5   ar
    15     5     6   ar
    16     6     7   ar
    17     7     8    1
    18     8     9   ar
    19     9    10   ar
    20    10    11   ar
    21    11    13    1
    22    13    15    1
    23    15    16    1
    24    16    17    1
    25    17    18    1
    26    18    19    1
    27    19    20    1
    28    20    21    1
    29    21    22    1
    30    22    23    1
    31    11    12   ar
    32     7     2   ar
    33    12     8   ar
    34    33    28   ar
    35    23    18    1
    36    24    27    1
    37    13    14    1
@<TRIPOS>MOLECULE
*****
 34 37 0 0 0
SMALL
GASTEIGER

@<TRIPOS>ATOM
      1 C         139.8982  138.9395  163.5077 C.3     1  UNL1        0.0312
      2 C         139.2260  140.2673  163.3203 C.ar    1  UNL1       -0.0161
      3 C         139.2249  140.9237  161.9716 C.ar    1  UNL1        0.0106
      4 C         138.5527  142.2515  161.7842 C.ar    1  UNL1        0.0502
      5 C         137.8816  142.9229  162.9455 C.ar    1  UNL1        0.0148
      6 C         137.8827  142.2665  164.2943 C.ar    1  UNL1        0.0057
      7 C         138.5549  140.9387  164.4816 C.ar    1  UNL1        0.0513
      8 C         138.5560  140.2824  165.8304 C.ar    1  UNL1        0.2509
      9 N         137.7083  139.1160  166.2441 N.ar    1  UNL1       -0.1058
     10 N         138.0334  138.7900  167.6717 N.ar    1  UNL1       -0.0923
     11 C         139.0820  139.7548  168.1404 C.ar    1  UNL1        0.3086
     12 O         139.4049  140.6771  167.0024 O.2     1  UNL1       -0.4049
     13 N         139.6992  139.7909  169.5070 N.pl3   1  UNL1       -0.2871
     14 H         139.7479  138.9691  170.0470 H       1  UNL1        0.1512
     15 C         140.2422  141.0790  170.0509 C.3     1  UNL1        0.0925
     16 C         141.6030  141.1126  170.6810 C.3     1  UNL1        0.0386
     17 C         142.8246  141.2472  169.8211 C.3     1  UNL1        0.0738
     18 N         142.7678  140.8634  168.3721 N.3     1  UNL1       -0.2726
     19 C         142.7805  139.4161  167.9784 C.3     1  UNL1        0.0721
     20 C         142.7237  139.0324  166.5294 C.3     1  UNL1        0.0174
     21 C         142.6541  140.0961  165.4741 C.3     1  UNL1        0.0029
     22 C         142.6414  141.5434  165.8677 C.3     1  UNL1        0.0174
     23 C         142.6982  141.9272  167.3168 C.3     1  UNL1        0.0721
     24 N         138.5516  142.9079  160.4354 N.am    1  UNL1       -0.2803
     25 C         139.8140  143.5103  159.8934 C.2     1  UNL1        0.2517
     26 O         141.0773  143.4563  160.7003 O.2     1  UNL1       -0.2697
     27 H         137.7224  142.9433  159.9058 H       1  UNL1        0.1552
     28 C         139.8129  144.1667  158.5447 C.ar    1  UNL1        0.0811
     29 C         140.3394  145.5626  158.3895 C.ar    1  UNL1        0.0068
     30 C         140.3384  146.2190  157.0407 C.ar    1  UNL1        0.0003
     31 C         139.8109  145.4794  155.8471 C.ar    1  UNL1        0.0023
     32 C         139.2844  144.0834  156.0023 C.ar    1  UNL1        0.0298
     33 C         139.2854  143.4270  157.3510 C.ar    1  UNL1        0.1445
     34 F         138.7589  142.0311  157.5062 F       1  UNL1       -0.2040
@<TRIPOS>BOND
     1     1     2    1
     2     2     3   ar
     3     3     4   ar
     4     4    24    1
     5    24    25   am
     6    25    26    2
     7    25    28    1
     8    28    29   ar
     9    29    30   ar
    10    30    31   ar
    11    31    32   ar
    12    32    33   ar
    13    33    34    1
    14     4     5   ar
    15     5     6   ar
    16     6     7   ar
    17     7     8    1
    18     8     9   ar
    19     9    10   ar
    20    10    11   ar
    21    11    13    1
    22    13    15    1
    23    15    16    1
    24    16    17    1
    25    17    18    1
    26    18    19    1
    27    19    20    1
    28    20    21    1
    29    21    22    1
    30    22    23    1
    31    11    12   ar
    32     7     2   ar
    33    12     8   ar
    34    33    28   ar
    35    23    18    1
    36    24    27    1
    37    13    14    1
@<TRIPOS>MOLECULE
*****
 34 37 0 0 0
SMALL
GASTEIGER

@<TRIPOS>ATOM
      1 C         139.4684  137.3094  164.1871 C.3     1  UNL1        0.0312
      2 C         138.8116  138.4793  163.5163 C.ar    1  UNL1       -0.0161
      3 C         138.6696  138.5052  162.0233 C.ar    1  UNL1        0.0106
      4 C         138.0127  139.6751  161.3526 C.ar    1  UNL1        0.0502
      5 C         137.4978  140.8191  162.1748 C.ar    1  UNL1        0.0148
      6 C         137.6398  140.7932  163.6678 C.ar    1  UNL1        0.0057
      7 C         138.2967  139.6233  164.3386 C.ar    1  UNL1        0.0513
      8 C         138.4387  139.5974  165.8317 C.ar    1  UNL1        0.2509
      9 N         137.6467  138.7446  166.7780 N.ar    1  UNL1       -0.1058
     10 N         138.1161  139.0400  168.1717 N.ar    1  UNL1       -0.0923
     11 C         139.1983  140.0754  168.0868 C.ar    1  UNL1        0.3086
     12 O         139.3976  140.4198  166.6405 O.2     1  UNL1       -0.4049
     13 N         139.9491  140.6630  169.2447 N.pl3   1  UNL1       -0.2871
     14 H         139.9296  141.6347  169.4019 H       1  UNL1        0.1512
     15 C         140.7299  139.7702  170.1630 C.3     1  UNL1        0.0925
     16 C         142.2294  139.7887  170.1311 C.3     1  UNL1        0.0386
     17 C         142.9482  140.7081  169.1888 C.3     1  UNL1        0.0738
     18 N         142.7627  140.5589  167.7078 N.3     1  UNL1       -0.2726
     19 C         142.6208  141.7764  166.8432 C.3     1  UNL1        0.0721
     20 C         142.4354  141.6271  165.3622 C.3     1  UNL1        0.0174
     21 C         142.3918  140.2603  164.7458 C.3     1  UNL1        0.0029
     22 C         142.5337  139.0428  165.6104 C.3     1  UNL1        0.0174
     23 C         142.7192  139.1921  167.0914 C.3     1  UNL1        0.0721
     24 N         137.8708  139.7009  159.8595 N.am    1  UNL1       -0.2803
     25 C         138.9557  140.2981  159.0132 C.2     1  UNL1        0.2517
     26 O         140.1827  140.8693  159.6600 O.2     1  UNL1       -0.2697
     27 H         137.0655  139.3260  159.4350 H       1  UNL1        0.1552
     28 C         138.8138  140.3239  157.5202 C.ar    1  UNL1        0.0811
     29 C         139.4207  139.2319  156.6900 C.ar    1  UNL1        0.0068
     30 C         139.2788  139.2578  155.1969 C.ar    1  UNL1        0.0003
     31 C         138.5299  140.3757  154.5341 C.ar    1  UNL1        0.0023
     32 C         137.9230  141.4678  155.3642 C.ar    1  UNL1        0.0298
     33 C         138.0650  141.4419  156.8572 C.ar    1  UNL1        0.1445
     34 F         137.4580  142.5339  157.6873 F       1  UNL1       -0.2040
@<TRIPOS>BOND
     1     1     2    1
     2     2     3   ar
     3     3     4   ar
     4     4    24    1
     5    24    25   am
     6    25    26    2
     7    25    28    1
     8    28    29   ar
     9    29    30   ar
    10    30    31   ar
    11    31    32   ar
    12    32    33   ar
    13    33    34    1
    14     4     5   ar
    15     5     6   ar
    16     6     7   ar
    17     7     8    1
    18     8     9   ar
    19     9    10   ar
    20    10    11   ar
    21    11    13    1
    22    13    15    1
    23    15    16    1
    24    16    17    1
    25    17    18    1
    26    18    19    1
    27    19    20    1
    28    20    21    1
    29    21    22    1
    30    22    23    1
    31    11    12   ar
    32     7     2   ar
    33    12     8   ar
    34    33    28   ar
    35    23    18    1
    36    24    27    1
    37    13    14    1
@<TRIPOS>MOLECULE
*****
 34 37 0 0 0
SMALL
GASTEIGER

@<TRIPOS>ATOM
      1 C         140.5354  137.2309  164.5535 C.3     1  UNL1        0.0312
      2 C         140.4766  138.5975  163.9378 C.ar    1  UNL1       -0.0161
      3 C         141.1194  138.8483  162.6060 C.ar    1  UNL1        0.0106
      4 C         141.0606  140.2149  161.9903 C.ar    1  UNL1        0.0502
      5 C         140.3590  141.3306  162.7065 C.ar    1  UNL1        0.0148
      6 C         139.7162  141.0798  164.0383 C.ar    1  UNL1        0.0057
      7 C         139.7750  139.7132  164.6540 C.ar    1  UNL1        0.0513
      8 C         139.1322  139.4624  165.9860 C.ar    1  UNL1        0.2509
      9 N         137.9583  138.5648  166.2434 N.ar    1  UNL1       -0.1058
     10 N         137.6511  138.6128  167.7108 N.ar    1  UNL1       -0.0923
     11 C         138.6352  139.5401  168.3603 C.ar    1  UNL1        0.3086
     12 O         139.5506  140.0651  167.2943 O.2     1  UNL1       -0.4049
     13 N         138.6936  139.8822  169.8196 N.pl3   1  UNL1       -0.2871
     14 H         137.8915  139.7812  170.3814 H       1  UNL1        0.1512
     15 C         139.9743  140.3781  170.4230 C.3     1  UNL1        0.0925
     16 C         141.2317  139.5729  170.2802 C.3     1  UNL1        0.0386
     17 C         142.4904  140.2278  169.7936 C.3     1  UNL1        0.0738
     18 N         142.7472  140.3584  168.3214 N.3     1  UNL1       -0.2726
     19 C         142.9750  139.1322  167.4881 C.3     1  UNL1        0.0721
     20 C         143.2317  139.2629  166.0160 C.3     1  UNL1        0.0174
     21 C         143.2606  140.6198  165.3772 C.3     1  UNL1        0.0029
     22 C         143.0328  141.8459  166.2106 C.3     1  UNL1        0.0174
     23 C         142.7760  141.7153  167.6827 C.3     1  UNL1        0.0721
     24 N         141.7034  140.4657  160.6584 N.am    1  UNL1       -0.2803
     25 C         143.1769  140.7338  160.5754 C.2     1  UNL1        0.2517
     26 O         144.0076  140.7511  161.8243 O.2     1  UNL1       -0.2697
     27 H         141.1581  140.4544  159.8387 H       1  UNL1        0.1552
     28 C         143.8197  140.9846  159.2435 C.ar    1  UNL1        0.0811
     29 C         144.5779  142.2566  159.0043 C.ar    1  UNL1        0.0068
     30 C         145.2208  142.5073  157.6724 C.ar    1  UNL1        0.0003
     31 C         145.1053  141.4862  156.5798 C.ar    1  UNL1        0.0023
     32 C         144.3471  140.2143  156.8190 C.ar    1  UNL1        0.0298
     33 C         143.7043  139.9635  158.1508 C.ar    1  UNL1        0.1445
     34 F         142.9460  138.6915  158.3900 F       1  UNL1       -0.2040
@<TRIPOS>BOND
     1     1     2    1
     2     2     3   ar
     3     3     4   ar
     4     4    24    1
     5    24    25   am
     6    25    26    2
     7    25    28    1
     8    28    29   ar
     9    29    30   ar
    10    30    31   ar
    11    31    32   ar
    12    32    33   ar
    13    33    34    1
    14     4     5   ar
    15     5     6   ar
    16     6     7   ar
    17     7     8    1
    18     8     9   ar
    19     9    10   ar
    20    10    11   ar
    21    11    13    1
    22    13    15    1
    23    15    16    1
    24    16    17    1
    25    17    18    1
    26    18    19    1
    27    19    20    1
    28    20    21    1
    29    21    22    1
    30    22    23    1
    31    11    12   ar
    32     7     2   ar
    33    12     8   ar
    34    33    28   ar
    35    23    18    1
    36    24    27    1
    37    13    14    1
@<TRIPOS>MOLECULE
*****
 34 37 0 0 0
SMALL
GASTEIGER

@<TRIPOS>ATOM
      1 C         139.6114  143.2788  165.6187 C.3     1  UNL1        0.0312
      2 C         139.0848  142.5430  164.4223 C.ar    1  UNL1       -0.0161
      3 C         139.0250  143.2260  163.0882 C.ar    1  UNL1        0.0106
      4 C         138.4984  142.4901  161.8919 C.ar    1  UNL1        0.0502
      5 C         138.0316  141.0713  162.0297 C.ar    1  UNL1        0.0148
      6 C         138.0915  140.3883  163.3638 C.ar    1  UNL1        0.0057
      7 C         138.6181  141.1242  164.5601 C.ar    1  UNL1        0.0513
      8 C         138.6779  140.4411  165.8943 C.ar    1  UNL1        0.2509
      9 N         137.8778  139.2414  166.3072 N.ar    1  UNL1       -0.1058
     10 N         138.2537  138.8967  167.7179 N.ar    1  UNL1       -0.0923
     11 C         139.2861  139.8835  168.1768 C.ar    1  UNL1        0.3086
     12 O         139.5482  140.8380  167.0497 O.2     1  UNL1       -0.4049
     13 N         139.9413  139.9109  169.5258 N.pl3   1  UNL1       -0.2871
     14 H         139.4172  140.1545  170.3228 H       1  UNL1        0.1512
     15 C         141.3952  139.5672  169.6606 C.3     1  UNL1        0.0925
     16 C         142.3836  140.0812  168.6562 C.3     1  UNL1        0.0386
     17 C         142.8677  139.1858  167.5544 C.3     1  UNL1        0.0738
     18 N         142.5190  139.4953  166.1286 N.3     1  UNL1       -0.2726
     19 C         141.8206  138.4684  165.2874 C.3     1  UNL1        0.0721
     20 C         141.4719  138.7778  163.8617 C.3     1  UNL1        0.0174
     21 C         141.8216  140.1143  163.2772 C.3     1  UNL1        0.0029
     22 C         142.5199  141.1412  164.1184 C.3     1  UNL1        0.0174
     23 C         142.8687  140.8317  165.5441 C.3     1  UNL1        0.0721
     24 N         138.4386  143.1732  160.5577 N.am    1  UNL1       -0.2803
     25 C         139.6273  143.1385  159.6435 C.2     1  UNL1        0.2517
     26 O         140.8758  142.4208  160.0634 O.2     1  UNL1       -0.2697
     27 H         137.6192  143.6442  160.2821 H       1  UNL1        0.1552
     28 C         139.5676  143.8215  158.3094 C.ar    1  UNL1        0.0811
     29 C         138.7648  143.2200  157.1941 C.ar    1  UNL1        0.0068
     30 C         138.7051  143.9031  155.8599 C.ar    1  UNL1        0.0003
     31 C         139.4481  145.1876  155.6411 C.ar    1  UNL1        0.0023
     32 C         140.2508  145.7891  156.7563 C.ar    1  UNL1        0.0298
     33 C         140.3105  145.1061  158.0905 C.ar    1  UNL1        0.1445
     34 F         141.1132  145.7077  159.2057 F       1  UNL1       -0.2040
@<TRIPOS>BOND
     1     1     2    1
     2     2     3   ar
     3     3     4   ar
     4     4    24    1
     5    24    25   am
     6    25    26    2
     7    25    28    1
     8    28    29   ar
     9    29    30   ar
    10    30    31   ar
    11    31    32   ar
    12    32    33   ar
    13    33    34    1
    14     4     5   ar
    15     5     6   ar
    16     6     7   ar
    17     7     8    1
    18     8     9   ar
    19     9    10   ar
    20    10    11   ar
    21    11    13    1
    22    13    15    1
    23    15    16    1
    24    16    17    1
    25    17    18    1
    26    18    19    1
    27    19    20    1
    28    20    21    1
    29    21    22    1
    30    22    23    1
    31    11    12   ar
    32     7     2   ar
    33    12     8   ar
    34    33    28   ar
    35    23    18    1
    36    24    27    1
    37    13    14    1
@<TRIPOS>MOLECULE
*****
 34 37 0 0 0
SMALL
GASTEIGER

@<TRIPOS>ATOM
      1 C         141.2091  137.3078  164.5199 C.3     1  UNL1        0.0312
      2 C         142.3211  138.1270  163.9347 C.ar    1  UNL1       -0.0161
      3 C         142.6014  138.0681  162.4624 C.ar    1  UNL1        0.0106
      4 C         143.7134  138.8873  161.8772 C.ar    1  UNL1        0.0502
      5 C         144.5451  139.7653  162.7645 C.ar    1  UNL1        0.0148
      6 C         144.2648  139.8242  164.2368 C.ar    1  UNL1        0.0057
      7 C         143.1528  139.0050  164.8220 C.ar    1  UNL1        0.0513
      8 C         142.8726  139.0638  166.2945 C.ar    1  UNL1        0.2509
      9 N         143.6879  138.4154  167.3737 N.ar    1  UNL1       -0.1058
     10 N         143.0470  138.7323  168.6924 N.ar    1  UNL1       -0.0923
     11 C         141.8357  139.5766  168.4281 C.ar    1  UNL1        0.3086
     12 O         141.7279  139.7815  166.9461 O.2     1  UNL1       -0.4049
     13 N         140.8970  140.1205  169.4639 N.pl3   1  UNL1       -0.2871
     14 H         140.7713  139.6411  170.3146 H       1  UNL1        0.1512
     15 C         140.1497  141.3948  169.2037 C.3     1  UNL1        0.0925
     16 C         140.8118  142.5127  168.4540 C.3     1  UNL1        0.0386
     17 C         140.1301  143.1269  167.2673 C.3     1  UNL1        0.0738
     18 N         140.3437  142.5513  165.8986 N.3     1  UNL1       -0.2726
     19 C         139.3527  141.5790  165.3308 C.3     1  UNL1        0.0721
     20 C         139.5663  141.0035  163.9622 C.3     1  UNL1        0.0174
     21 C         140.7709  141.4003  163.1613 C.3     1  UNL1        0.0029
     22 C         141.7619  142.3726  163.7291 C.3     1  UNL1        0.0174
     23 C         141.5484  142.9482  165.0978 C.3     1  UNL1        0.0721
     24 N         143.9936  138.8285  160.4048 N.am    1  UNL1       -0.2803
     25 C         143.3547  139.8213  159.4795 C.2     1  UNL1        0.2517
     26 O         142.4357  140.8730  160.0266 O.2     1  UNL1       -0.2697
     27 H         144.5968  138.1382  160.0457 H       1  UNL1        0.1552
     28 C         143.6349  139.7625  158.0071 C.ar    1  UNL1        0.0811
     29 C         143.0041  138.6928  157.1657 C.ar    1  UNL1        0.0068
     30 C         143.2843  138.6341  155.6932 C.ar    1  UNL1        0.0003
     31 C         144.1953  139.6449  155.0622 C.ar    1  UNL1        0.0023
     32 C         144.8262  140.7145  155.9036 C.ar    1  UNL1        0.0298
     33 C         144.5460  140.7734  157.3760 C.ar    1  UNL1        0.1445
     34 F         145.1768  141.8430  158.2173 F       1  UNL1       -0.2040
@<TRIPOS>BOND
     1     1     2    1
     2     2     3   ar
     3     3     4   ar
     4     4    24    1
     5    24    25   am
     6    25    26    2
     7    25    28    1
     8    28    29   ar
     9    29    30   ar
    10    30    31   ar
    11    31    32   ar
    12    32    33   ar
    13    33    34    1
    14     4     5   ar
    15     5     6   ar
    16     6     7   ar
    17     7     8    1
    18     8     9   ar
    19     9    10   ar
    20    10    11   ar
    21    11    13    1
    22    13    15    1
    23    15    16    1
    24    16    17    1
    25    17    18    1
    26    18    19    1
    27    19    20    1
    28    20    21    1
    29    21    22    1
    30    22    23    1
    31    11    12   ar
    32     7     2   ar
    33    12     8   ar
    34    33    28   ar
    35    23    18    1
    36    24    27    1
    37    13    14    1
@<TRIPOS>MOLECULE
*****
 34 37 0 0 0
SMALL
GASTEIGER

@<TRIPOS>ATOM
      1 C         140.7042  139.8692  161.1911 C.3     1  UNL1        0.0312
      2 C         139.7817  140.5620  162.1498 C.ar    1  UNL1       -0.0161
      3 C         139.9528  140.3690  163.6274 C.ar    1  UNL1        0.0106
      4 C         139.0303  141.0618  164.5861 C.ar    1  UNL1        0.0502
      5 C         137.9367  141.9476  164.0671 C.ar    1  UNL1        0.0148
      6 C         137.7656  142.1406  162.5895 C.ar    1  UNL1        0.0057
      7 C         138.6881  141.4478  161.6308 C.ar    1  UNL1        0.0513
      8 C         138.5169  141.6409  160.1531 C.ar    1  UNL1        0.2509
      9 N         137.8822  140.6677  159.2045 N.ar    1  UNL1       -0.1058
     10 N         137.9235  141.2664  157.8298 N.ar    1  UNL1       -0.0923
     11 C         138.5838  142.6096  157.9288 C.ar    1  UNL1        0.3086
     12 O         138.9506  142.8411  159.3647 O.2     1  UNL1       -0.4049
     13 N         138.8334  143.5554  156.7916 N.pl3   1  UNL1       -0.2871
     14 H         138.4519  143.3688  155.9034 H       1  UNL1        0.1512
     15 C         139.6645  144.7853  157.0076 C.3     1  UNL1        0.0925
     16 C         141.1104  144.6566  157.3854 C.3     1  UNL1        0.0386
     17 C         141.6620  145.4601  158.5256 C.3     1  UNL1        0.0738
     18 N         141.4333  145.0119  159.9388 N.3     1  UNL1       -0.2726
     19 C         140.3661  145.6619  160.7684 C.3     1  UNL1        0.0721
     20 C         140.1375  145.2137  162.1815 C.3     1  UNL1        0.0174
     21 C         140.9761  144.1154  162.7650 C.3     1  UNL1        0.0029
     22 C         142.0433  143.4653  161.9353 C.3     1  UNL1        0.0174
     23 C         142.2720  143.9135  160.5222 C.3     1  UNL1        0.0721
     24 N         139.2014  140.8687  166.0638 N.am    1  UNL1       -0.2803
     25 C         140.3059  141.5779  166.7898 C.2     1  UNL1        0.2517
     26 O         141.2392  142.4802  166.0382 O.2     1  UNL1       -0.2697
     27 H         138.5889  140.2765  166.5571 H       1  UNL1        0.1552
     28 C         140.4771  141.3849  168.2675 C.ar    1  UNL1        0.0811
     29 C         140.7783  140.0216  168.8158 C.ar    1  UNL1        0.0068
     30 C         140.9495  139.8287  170.2935 C.ar    1  UNL1        0.0003
     31 C         140.8194  140.9989  171.2228 C.ar    1  UNL1        0.0023
     32 C         140.5182  142.3622  170.6744 C.ar    1  UNL1        0.0298
     33 C         140.3470  142.5552  169.1968 C.ar    1  UNL1        0.1445
     34 F         140.0458  143.9185  168.6484 F       1  UNL1       -0.2040
@<TRIPOS>BOND
     1     1     2    1
     2     2     3   ar
     3     3     4   ar
     4     4    24    1
     5    24    25   am
     6    25    26    2
     7    25    28    1
     8    28    29   ar
     9    29    30   ar
    10    30    31   ar
    11    31    32   ar
    12    32    33   ar
    13    33    34    1
    14     4     5   ar
    15     5     6   ar
    16     6     7   ar
    17     7     8    1
    18     8     9   ar
    19     9    10   ar
    20    10    11   ar
    21    11    13    1
    22    13    15    1
    23    15    16    1
    24    16    17    1
    25    17    18    1
    26    18    19    1
    27    19    20    1
    28    20    21    1
    29    21    22    1
    30    22    23    1
    31    11    12   ar
    32     7     2   ar
    33    12     8   ar
    34    33    28   ar
    35    23    18    1
    36    24    27    1
    37    13    14    1
@<TRIPOS>MOLECULE
*****
 34 37 0 0 0
SMALL
GASTEIGER

@<TRIPOS>ATOM
      1 C         140.0373  138.9563  159.9929 C.3     1  UNL1        0.0312
      2 C         141.1634  138.7332  160.9584 C.ar    1  UNL1       -0.0161
      3 C         140.8966  138.7320  162.4344 C.ar    1  UNL1        0.0106
      4 C         142.0227  138.5089  163.3999 C.ar    1  UNL1        0.0502
      5 C         143.4155  138.2869  162.8894 C.ar    1  UNL1        0.0148
      6 C         143.6823  138.2881  161.4133 C.ar    1  UNL1        0.0057
      7 C         142.5562  138.5112  160.4478 C.ar    1  UNL1        0.0513
      8 C         142.8231  138.5123  158.9717 C.ar    1  UNL1        0.2509
      9 N         143.7267  139.4598  158.2398 N.ar    1  UNL1       -0.1058
     10 N         143.6952  139.0992  156.7841 N.ar    1  UNL1       -0.0923
     11 C         142.7720  137.9288  156.6164 C.ar    1  UNL1        0.3086
     12 O         142.2331  137.5662  157.9684 O.2     1  UNL1       -0.4049
     13 N         142.4453  137.2418  155.3236 N.pl3   1  UNL1       -0.2871
     14 H         142.8458  137.5597  154.4823 H       1  UNL1        0.1512
     15 C         141.5083  136.0705  155.3127 C.3     1  UNL1        0.0925
     16 C         142.0324  134.6884  155.5677 C.3     1  UNL1        0.0386
     17 C         142.8943  134.4225  156.7663 C.3     1  UNL1        0.0738
     18 N         143.4213  133.0411  157.0195 N.3     1  UNL1       -0.2726
     19 C         144.6884  132.8530  157.7998 C.3     1  UNL1        0.0721
     20 C         145.2153  131.4716  158.0529 C.3     1  UNL1        0.0174
     21 C         144.4751  130.2782  157.5257 C.3     1  UNL1        0.0029
     22 C         143.2080  130.4663  156.7454 C.3     1  UNL1        0.0174
     23 C         142.6810  131.8477  156.4922 C.3     1  UNL1        0.0721
     24 N         141.7559  138.5078  164.8761 N.am    1  UNL1       -0.2803
     25 C         141.7887  139.7952  165.6451 C.2     1  UNL1        0.2517
     26 O         142.0884  141.0838  164.9381 O.2     1  UNL1       -0.2697
     27 H         141.5592  137.6621  165.3401 H       1  UNL1        0.1552
     28 C         141.5219  139.7941  167.1212 C.ar    1  UNL1        0.0811
     29 C         142.6089  139.4068  168.0795 C.ar    1  UNL1        0.0068
     30 C         142.3420  139.4057  169.5557 C.ar    1  UNL1        0.0003
     31 C         140.9883  139.7920  170.0734 C.ar    1  UNL1        0.0023
     32 C         139.9013  140.1793  169.1150 C.ar    1  UNL1        0.0298
     33 C         140.1681  140.1804  167.6389 C.ar    1  UNL1        0.1445
     34 F         139.0811  140.5678  166.6806 F       1  UNL1       -0.2040
@<TRIPOS>BOND
     1     1     2    1
     2     2     3   ar
     3     3     4   ar
     4     4    24    1
     5    24    25   am
     6    25    26    2
     7    25    28    1
     8    28    29   ar
     9    29    30   ar
    10    30    31   ar
    11    31    32   ar
    12    32    33   ar
    13    33    34    1
    14     4     5   ar
    15     5     6   ar
    16     6     7   ar
    17     7     8    1
    18     8     9   ar
    19     9    10   ar
    20    10    11   ar
    21    11    13    1
    22    13    15    1
    23    15    16    1
    24    16    17    1
    25    17    18    1
    26    18    19    1
    27    19    20    1
    28    20    21    1
    29    21    22    1
    30    22    23    1
    31    11    12   ar
    32     7     2   ar
    33    12     8   ar
    34    33    28   ar
    35    23    18    1
    36    24    27    1
    37    13    14    1
@<TRIPOS>MOLECULE
*****
 34 37 0 0 0
SMALL
GASTEIGER

@<TRIPOS>ATOM
      1 C         139.8126  146.1011  162.3027 C.3     1  UNL1        0.0312
      2 C         140.4936  144.8166  162.6718 C.ar    1  UNL1       -0.0161
      3 C         140.6386  144.4322  164.1144 C.ar    1  UNL1        0.0106
      4 C         141.3197  143.1477  164.4835 C.ar    1  UNL1        0.0502
      5 C         141.8557  142.2476  163.4100 C.ar    1  UNL1        0.0148
      6 C         141.7107  142.6320  161.9674 C.ar    1  UNL1        0.0057
      7 C         141.0297  143.9165  161.5983 C.ar    1  UNL1        0.0513
      8 C         140.8847  144.3009  160.1556 C.ar    1  UNL1        0.2509
      9 N         139.8506  143.7775  159.2034 N.ar    1  UNL1       -0.1058
     10 N         140.0752  144.4293  157.8712 N.ar    1  UNL1       -0.0923
     11 C         141.2480  145.3555  158.0001 C.ar    1  UNL1        0.3086
     12 O         141.7483  145.2761  159.4120 O.2     1  UNL1       -0.4049
     13 N         141.8201  146.2109  156.9088 N.pl3   1  UNL1       -0.2871
     14 H         142.3338  147.0197  157.1353 H       1  UNL1        0.1512
     15 C         141.6096  145.8340  155.4722 C.3     1  UNL1        0.0925
     16 C         140.3612  146.2626  154.7596 C.3     1  UNL1        0.0386
     17 C         140.3757  147.4854  153.8910 C.3     1  UNL1        0.0738
     18 N         139.7840  148.7692  154.3931 N.3     1  UNL1       -0.2726
     19 C         140.0805  150.0586  153.6865 C.3     1  UNL1        0.0721
     20 C         139.4889  151.3423  154.1886 C.3     1  UNL1        0.0174
     21 C         138.6006  151.3365  155.3973 C.3     1  UNL1        0.0029
     22 C         138.3041  150.0471  156.1039 C.3     1  UNL1        0.0174
     23 C         138.8958  148.7633  155.6018 C.3     1  UNL1        0.0721
     24 N         141.4647  142.7633  165.9262 N.am    1  UNL1       -0.2803
     25 C         140.4086  141.9303  166.5902 C.2     1  UNL1        0.2517
     26 O         139.2075  141.4817  165.8115 O.2     1  UNL1       -0.2697
     27 H         142.2529  143.0577  166.4373 H       1  UNL1        0.1552
     28 C         140.5535  141.5459  168.0328 C.ar    1  UNL1        0.0811
     29 C         140.8764  140.1285  168.4026 C.ar    1  UNL1        0.0068
     30 C         141.0214  139.7441  169.8453 C.ar    1  UNL1        0.0003
     31 C         140.8434  140.7772  170.9182 C.ar    1  UNL1        0.0023
     32 C         140.5205  142.1946  170.5484 C.ar    1  UNL1        0.0298
     33 C         140.3756  142.5790  169.1058 C.ar    1  UNL1        0.1445
     34 F         140.0527  143.9964  168.7361 F       1  UNL1       -0.2040
@<TRIPOS>BOND
     1     1     2    1
     2     2     3   ar
     3     3     4   ar
     4     4    24    1
     5    24    25   am
     6    25    26    2
     7    25    28    1
     8    28    29   ar
     9    29    30   ar
    10    30    31   ar
    11    31    32   ar
    12    32    33   ar
    13    33    34    1
    14     4     5   ar
    15     5     6   ar
    16     6     7   ar
    17     7     8    1
    18     8     9   ar
    19     9    10   ar
    20    10    11   ar
    21    11    13    1
    22    13    15    1
    23    15    16    1
    24    16    17    1
    25    17    18    1
    26    18    19    1
    27    19    20    1
    28    20    21    1
    29    21    22    1
    30    22    23    1
    31    11    12   ar
    32     7     2   ar
    33    12     8   ar
    34    33    28   ar
    35    23    18    1
    36    24    27    1
    37    13    14    1
