@<TRIPOS>MOLECULE
*****
 43 48 0 0 0
SMALL
GASTEIGER

@<TRIPOS>ATOM
      1 C         137.8897  142.9951  162.8776 C.3     1  UNL1        0.0932
      2 C         138.1346  142.7296  161.4218 C.3     1  UNL1        0.0286
      3 C         138.1305  141.3214  160.9051 C.3     1  UNL1        0.0193
      4 C         137.8814  140.1786  161.8443 C.3     1  UNL1        0.0700
      5 C         137.6365  140.4441  163.3001 C.3     1  UNL1        0.0193
      6 C         137.6406  141.8523  163.8168 C.3     1  UNL1        0.0286
      7 C         137.8741  140.9331  162.1739 C.3     1  UNL1        0.1562
      8 O         137.8778  142.2064  162.6411 O.3     1  UNL1       -0.3572
      9 N         137.8773  138.7705  161.3276 N.3     1  UNL1       -0.2926
     10 H         137.3341  138.7752  160.4643 H       1  UNL1        0.1236
     11 C         139.1733  138.0806  161.0200 C.3     1  UNL1        0.1152
     12 C         140.3541  138.2640  161.9265 C.ar    1  UNL1        0.0765
     13 C         140.4736  137.4452  163.1777 C.ar    1  UNL1        0.0193
     14 C         141.6544  137.6286  164.0842 C.ar    1  UNL1        0.0411
     15 C         142.7159  138.6308  163.7397 C.ar    1  UNL1        0.1708
     16 C         142.5966  139.4497  162.4886 C.ar    1  UNL1        0.1682
     17 N         141.4156  139.2663  161.5820 N.ar    1  UNL1       -0.2304
     18 N         143.6581  140.4519  162.1441 N.am    1  UNL1       -0.2639
     19 C         144.8389  140.6353  163.0506 C.2     1  UNL1        0.2718
     20 O         145.9004  141.6376  162.7061 O.2     1  UNL1       -0.2707
     21 C         144.9584  139.8165  164.3017 C.3     1  UNL1        0.2898
     22 O         143.8969  138.8142  164.6463 O.3     1  UNL1       -0.4628
     23 H         143.5797  140.9894  161.3229 H       1  UNL1        0.1565
     24 C         137.8938  144.4032  163.3943 C.3     1  UNL1        0.0320
     25 C         138.8617  144.8056  164.4674 C.3     1  UNL1        0.0327
     26 C         140.6599  141.6345  167.1056 C.ar    1  UNL1        0.2249
     27 C         142.1127  141.2851  166.9747 C.ar    1  UNL1        0.0593
     28 C         142.9662  141.9928  165.9643 C.ar    1  UNL1        0.0254
     29 C         142.3668  143.0498  165.0849 C.ar    1  UNL1        0.0990
     30 N         143.2202  143.7575  164.0745 N.ar    1  UNL1       -0.2400
     31 C         142.6208  144.8145  163.1951 C.ar    1  UNL1        0.1281
     32 C         141.1679  145.1639  163.3261 C.ar    1  UNL1        0.1566
     33 F         140.5685  146.2209  162.4467 F       1  UNL1       -0.2028
     34 C         140.3145  144.4562  164.3364 C.ar    1  UNL1        0.0261
     35 C         140.9140  143.3992  165.2159 C.ar    1  UNL1        0.1002
     36 N         140.0605  142.6915  166.2262 N.ar    1  UNL1       -0.2104
     37 O         139.8065  140.9268  168.1160 O.3     1  UNL1       -0.4602
     38 C         139.8129  141.3736  169.5479 C.3     1  UNL1        0.2075
     39 C         139.9200  142.8329  169.8777 C.3     1  UNL1        0.0533
     40 C         141.2579  143.5109  169.8545 C.3     1  UNL1        0.0455
     41 O         143.7692  142.8451  169.8740 O.co2   1  UNL1       -0.5492
     42 C         142.4297  142.8817  170.5481 C.2     1  UNL1        0.0505
     43 O         142.2619  142.2890  171.9158 O.co2   1  UNL1       -0.5492
@<TRIPOS>UNITY_ATOM_ATTR
41 1
charge -1
@<TRIPOS>BOND
     1    41    42   ar
     2    42    43   ar
     3    42    40    1
     4    40    39    1
     5    39    38    1
     6    38    37    1
     7    37    26    1
     8    26    27   ar
     9    27    28   ar
    10    28    29   ar
    11    29    30   ar
    12    30    31   ar
    13    31    32   ar
    14    32    33    1
    15    32    34   ar
    16    34    25    1
    17    25    24    1
    18    24     1    1
    19     1     2    1
    20     2     3    1
    21     3     4    1
    22     4     9    1
    23     9    11    1
    24    11    12    1
    25    12    13   ar
    26    13    14   ar
    27    14    15   ar
    28    15    16   ar
    29    16    17   ar
    30    16    18    1
    31    18    19   am
    32    19    20    2
    33    19    21    1
    34    21    22    1
    35     4     5    1
    36     5     6    1
    37     4     7    1
    38     7     8    1
    39    34    35   ar
    40    35    36   ar
    41    36    26   ar
    42    35    29   ar
    43     6     1    1
    44     8     1    1
    45    17    12   ar
    46    22    15    1
    47     9    10    1
    48    18    23    1
@<TRIPOS>MOLECULE
*****
 43 48 0 0 0
SMALL
GASTEIGER

@<TRIPOS>ATOM
      1 C         141.8756  138.0613  163.8970 C.3     1  UNL1        0.0932
      2 C         142.7658  138.5051  165.0198 C.3     1  UNL1        0.0286
      3 C         143.9889  139.3231  164.7288 C.3     1  UNL1        0.0193
      4 C         144.3221  139.6972  163.3148 C.3     1  UNL1        0.0700
      5 C         143.4319  139.2534  162.1920 C.3     1  UNL1        0.0193
      6 C         142.2087  138.4354  162.4831 C.3     1  UNL1        0.0286
      7 C         143.6411  139.2477  163.4251 C.3     1  UNL1        0.1562
      8 O         142.5350  138.5081  163.6882 O.3     1  UNL1       -0.3572
      9 N         145.5452  140.5151  163.0238 N.3     1  UNL1       -0.2926
     10 H         145.6625  140.5192  162.0105 H       1  UNL1        0.1236
     11 C         145.6163  141.9443  163.4736 C.3     1  UNL1        0.1152
     12 C         144.4290  142.8447  163.3016 C.ar    1  UNL1        0.0765
     13 C         143.7927  143.4841  164.5002 C.ar    1  UNL1        0.0193
     14 C         142.6054  144.3844  164.3282 C.ar    1  UNL1        0.0411
     15 C         142.0543  144.6454  162.9577 C.ar    1  UNL1        0.1708
     16 C         142.6905  144.0061  161.7593 C.ar    1  UNL1        0.1682
     17 N         143.8779  143.1057  161.9312 N.ar    1  UNL1       -0.2304
     18 N         142.1394  144.2671  160.3888 N.am    1  UNL1       -0.2639
     19 C         140.9521  145.1674  160.2168 C.2     1  UNL1        0.2718
     20 O         140.4010  145.4284  158.8464 O.2     1  UNL1       -0.2707
     21 C         140.3158  145.8068  161.4154 C.3     1  UNL1        0.2898
     22 O         140.8669  145.5458  162.7858 O.3     1  UNL1       -0.4628
     23 H         142.5570  143.8475  159.6022 H       1  UNL1        0.1565
     24 C         140.6525  137.2433  164.1881 C.3     1  UNL1        0.0320
     25 C         139.3774  137.9199  164.5962 C.3     1  UNL1        0.0327
     26 C         139.9909  142.0613  166.2461 C.ar    1  UNL1        0.2249
     27 C         139.4968  143.2538  165.4821 C.ar    1  UNL1        0.0593
     28 C         138.7982  143.0659  164.1681 C.ar    1  UNL1        0.0254
     29 C         138.5937  141.6854  163.6181 C.ar    1  UNL1        0.0990
     30 N         137.8950  141.4975  162.3041 N.ar    1  UNL1       -0.2400
     31 C         137.6905  140.1170  161.7541 C.ar    1  UNL1        0.1281
     32 C         138.1847  138.9244  162.5182 C.ar    1  UNL1        0.1566
     33 F         137.9801  137.5440  161.9682 F       1  UNL1       -0.2028
     34 C         138.8833  139.1124  163.8322 C.ar    1  UNL1        0.0261
     35 C         139.0878  140.4929  164.3821 C.ar    1  UNL1        0.1002
     36 N         139.7864  140.6809  165.6961 N.ar    1  UNL1       -0.2104
     37 O         140.6895  142.2493  167.5601 O.3     1  UNL1       -0.4602
     38 C         141.9739  141.5257  167.8369 C.3     1  UNL1        0.2075
     39 C         143.1761  142.2865  168.3122 C.3     1  UNL1        0.0533
     40 C         143.3508  142.5760  169.7737 C.3     1  UNL1        0.0455
     41 O         141.3333  144.1179  170.3238 O.co2   1  UNL1       -0.5492
     42 C         142.1569  142.9001  170.6220 C.2     1  UNL1        0.0505
     43 O         141.7866  142.0066  171.7684 O.co2   1  UNL1       -0.5492
@<TRIPOS>UNITY_ATOM_ATTR
41 1
charge -1
@<TRIPOS>BOND
     1    41    42   ar
     2    42    43   ar
     3    42    40    1
     4    40    39    1
     5    39    38    1
     6    38    37    1
     7    37    26    1
     8    26    27   ar
     9    27    28   ar
    10    28    29   ar
    11    29    30   ar
    12    30    31   ar
    13    31    32   ar
    14    32    33    1
    15    32    34   ar
    16    34    25    1
    17    25    24    1
    18    24     1    1
    19     1     2    1
    20     2     3    1
    21     3     4    1
    22     4     9    1
    23     9    11    1
    24    11    12    1
    25    12    13   ar
    26    13    14   ar
    27    14    15   ar
    28    15    16   ar
    29    16    17   ar
    30    16    18    1
    31    18    19   am
    32    19    20    2
    33    19    21    1
    34    21    22    1
    35     4     5    1
    36     5     6    1
    37     4     7    1
    38     7     8    1
    39    34    35   ar
    40    35    36   ar
    41    36    26   ar
    42    35    29   ar
    43     6     1    1
    44     8     1    1
    45    17    12   ar
    46    22    15    1
    47     9    10    1
    48    18    23    1
@<TRIPOS>MOLECULE
*****
 43 48 0 0 0
SMALL
GASTEIGER

@<TRIPOS>ATOM
      1 C         144.4677  139.7848  163.5327 C.3     1  UNL1        0.0932
      2 C         144.2126  139.6640  162.0595 C.3     1  UNL1        0.0286
      3 C         143.0765  138.8205  161.5618 C.3     1  UNL1        0.0193
      4 C         142.1955  138.0977  162.5372 C.3     1  UNL1        0.0700
      5 C         142.4506  138.2185  164.0104 C.3     1  UNL1        0.0193
      6 C         143.5868  139.0621  164.5082 C.3     1  UNL1        0.0286
      7 C         142.8058  138.5482  162.8575 C.3     1  UNL1        0.1562
      8 O         143.8331  139.3109  163.3076 O.3     1  UNL1       -0.3572
      9 N         141.0595  137.2541  162.0395 N.3     1  UNL1       -0.2926
     10 H         140.8198  136.6091  162.7924 H       1  UNL1        0.1236
     11 C         139.7799  137.9025  161.6009 C.3     1  UNL1        0.1152
     12 C         139.2395  139.0811  162.3550 C.ar    1  UNL1        0.0765
     13 C         138.6166  138.8859  163.7056 C.ar    1  UNL1        0.0193
     14 C         138.0762  140.0646  164.4597 C.ar    1  UNL1        0.0411
     15 C         138.1586  141.4384  163.8633 C.ar    1  UNL1        0.1708
     16 C         138.7814  141.6337  162.5128 C.ar    1  UNL1        0.1682
     17 N         139.3219  140.4550  161.7586 N.ar    1  UNL1       -0.2304
     18 N         138.8638  143.0075  161.9164 N.am    1  UNL1       -0.2639
     19 C         138.3234  144.1862  162.6705 C.2     1  UNL1        0.2718
     20 O         138.4058  145.5600  162.0741 O.2     1  UNL1       -0.2707
     21 C         137.7005  143.9910  164.0211 C.3     1  UNL1        0.2898
     22 O         137.6181  142.6171  164.6175 O.3     1  UNL1       -0.4628
     23 H         139.2726  143.1357  161.0300 H       1  UNL1        0.1565
     24 C         145.6037  140.6284  164.0304 C.3     1  UNL1        0.0320
     25 C         145.4518  142.1185  164.1121 C.3     1  UNL1        0.0327
     26 C         142.3735  141.9043  167.3875 C.ar    1  UNL1        0.2249
     27 C         141.0255  142.5326  167.1921 C.ar    1  UNL1        0.0593
     28 C         140.7036  143.2322  165.9049 C.ar    1  UNL1        0.0254
     29 C         141.7297  143.3036  164.8131 C.ar    1  UNL1        0.0990
     30 N         141.4078  144.0033  163.5259 N.ar    1  UNL1       -0.2400
     31 C         142.4339  144.0747  162.4342 C.ar    1  UNL1        0.1281
     32 C         143.7820  143.4464  162.6295 C.ar    1  UNL1        0.1566
     33 F         144.8080  143.5178  161.5378 F       1  UNL1       -0.2028
     34 C         144.1038  142.7467  163.9167 C.ar    1  UNL1        0.0261
     35 C         143.0777  142.6754  165.0085 C.ar    1  UNL1        0.1002
     36 N         143.3995  141.9757  166.2957 N.ar    1  UNL1       -0.2104
     37 O         142.6953  141.2046  168.6747 O.3     1  UNL1       -0.4602
     38 C         142.0279  139.9034  169.0083 C.3     1  UNL1        0.2075
     39 C         141.0039  139.8447  170.1029 C.3     1  UNL1        0.0533
     40 C         140.0060  140.9541  170.2566 C.3     1  UNL1        0.0455
     41 O         141.5571  142.2033  171.9250 O.co2   1  UNL1       -0.5492
     42 C         140.3841  142.2067  170.9901 C.2     1  UNL1        0.0505
     43 O         139.5892  143.4627  170.7887 O.co2   1  UNL1       -0.5492
@<TRIPOS>UNITY_ATOM_ATTR
41 1
charge -1
@<TRIPOS>BOND
     1    41    42   ar
     2    42    43   ar
     3    42    40    1
     4    40    39    1
     5    39    38    1
     6    38    37    1
     7    37    26    1
     8    26    27   ar
     9    27    28   ar
    10    28    29   ar
    11    29    30   ar
    12    30    31   ar
    13    31    32   ar
    14    32    33    1
    15    32    34   ar
    16    34    25    1
    17    25    24    1
    18    24     1    1
    19     1     2    1
    20     2     3    1
    21     3     4    1
    22     4     9    1
    23     9    11    1
    24    11    12    1
    25    12    13   ar
    26    13    14   ar
    27    14    15   ar
    28    15    16   ar
    29    16    17   ar
    30    16    18    1
    31    18    19   am
    32    19    20    2
    33    19    21    1
    34    21    22    1
    35     4     5    1
    36     5     6    1
    37     4     7    1
    38     7     8    1
    39    34    35   ar
    40    35    36   ar
    41    36    26   ar
    42    35    29   ar
    43     6     1    1
    44     8     1    1
    45    17    12   ar
    46    22    15    1
    47     9    10    1
    48    18    23    1
@<TRIPOS>MOLECULE
*****
 43 48 0 0 0
SMALL
GASTEIGER

@<TRIPOS>ATOM
      1 C         137.9137  142.7049  163.7920 C.3     1  UNL1        0.0932
      2 C         138.0503  141.4855  164.6548 C.3     1  UNL1        0.0286
      3 C         138.0421  140.1211  164.0318 C.3     1  UNL1        0.0193
      4 C         137.8973  139.9760  162.5458 C.3     1  UNL1        0.0700
      5 C         137.7606  141.1954  161.6830 C.3     1  UNL1        0.0193
      6 C         137.7689  142.5598  162.3061 C.3     1  UNL1        0.0286
      7 C         137.8963  140.7444  162.8416 C.3     1  UNL1        0.1562
      8 O         137.9037  141.9782  163.4050 O.3     1  UNL1       -0.3572
      9 N         137.8891  138.6116  161.9227 N.3     1  UNL1       -0.2926
     10 H         137.1454  138.6112  161.2246 H       1  UNL1        0.1236
     11 C         139.1206  138.0897  161.2438 C.3     1  UNL1        0.1152
     12 C         140.4725  138.3489  161.8397 C.ar    1  UNL1        0.0765
     13 C         141.5850  138.8682  160.9778 C.ar    1  UNL1        0.0193
     14 C         142.9369  139.1275  161.5737 C.ar    1  UNL1        0.0411
     15 C         143.1763  138.8675  163.0315 C.ar    1  UNL1        0.1708
     16 C         142.0639  138.3483  163.8933 C.ar    1  UNL1        0.1682
     17 N         140.7119  138.0890  163.2975 N.ar    1  UNL1       -0.2304
     18 N         142.3034  138.0883  165.3511 N.am    1  UNL1       -0.2639
     19 C         143.6552  138.3475  165.9470 C.2     1  UNL1        0.2718
     20 O         143.8947  138.0876  167.4048 O.2     1  UNL1       -0.2707
     21 C         144.7678  138.8668  165.0851 C.3     1  UNL1        0.2898
     22 O         144.5283  139.1268  163.6274 O.3     1  UNL1       -0.4628
     23 H         141.5732  137.7475  165.9168 H       1  UNL1        0.1565
     24 C         137.9219  144.0693  164.4151 C.3     1  UNL1        0.0320
     25 C         139.2235  144.7718  164.6652 C.3     1  UNL1        0.0327
     26 C         142.9391  142.4306  165.6466 C.ar    1  UNL1        0.2249
     27 C         144.0498  142.3314  164.6434 C.ar    1  UNL1        0.0593
     28 C         143.9220  143.0124  163.3130 C.ar    1  UNL1        0.0254
     29 C         142.6835  143.7928  162.9859 C.ar    1  UNL1        0.0990
     30 N         142.5557  144.4739  161.6556 N.ar    1  UNL1       -0.2400
     31 C         141.3172  145.2543  161.3284 C.ar    1  UNL1        0.1281
     32 C         140.2064  145.3536  162.3317 C.ar    1  UNL1        0.1566
     33 F         138.9679  146.1340  162.0045 F       1  UNL1       -0.2028
     34 C         140.3342  144.6725  163.6620 C.ar    1  UNL1        0.0261
     35 C         141.5728  143.8921  163.9891 C.ar    1  UNL1        0.1002
     36 N         141.7006  143.2110  165.3194 N.ar    1  UNL1       -0.2104
     37 O         143.0669  141.7496  166.9769 O.3     1  UNL1       -0.4602
     38 C         141.9298  141.7932  167.9542 C.3     1  UNL1        0.2075
     39 C         141.9922  142.7139  169.1368 C.3     1  UNL1        0.0533
     40 C         140.7490  143.4012  169.6185 C.3     1  UNL1        0.0455
     41 O         138.9009  143.5801  171.4358 O.co2   1  UNL1       -0.5492
     42 C         139.8972  142.7584  170.6727 C.2     1  UNL1        0.0505
     43 O         140.0416  141.2941  170.9636 O.co2   1  UNL1       -0.5492
@<TRIPOS>UNITY_ATOM_ATTR
41 1
charge -1
@<TRIPOS>BOND
     1    41    42   ar
     2    42    43   ar
     3    42    40    1
     4    40    39    1
     5    39    38    1
     6    38    37    1
     7    37    26    1
     8    26    27   ar
     9    27    28   ar
    10    28    29   ar
    11    29    30   ar
    12    30    31   ar
    13    31    32   ar
    14    32    33    1
    15    32    34   ar
    16    34    25    1
    17    25    24    1
    18    24     1    1
    19     1     2    1
    20     2     3    1
    21     3     4    1
    22     4     9    1
    23     9    11    1
    24    11    12    1
    25    12    13   ar
    26    13    14   ar
    27    14    15   ar
    28    15    16   ar
    29    16    17   ar
    30    16    18    1
    31    18    19   am
    32    19    20    2
    33    19    21    1
    34    21    22    1
    35     4     5    1
    36     5     6    1
    37     4     7    1
    38     7     8    1
    39    34    35   ar
    40    35    36   ar
    41    36    26   ar
    42    35    29   ar
    43     6     1    1
    44     8     1    1
    45    17    12   ar
    46    22    15    1
    47     9    10    1
    48    18    23    1
@<TRIPOS>MOLECULE
*****
 43 48 0 0 0
SMALL
GASTEIGER

@<TRIPOS>ATOM
      1 C         138.9703  143.1093  162.9710 C.3     1  UNL1        0.0932
      2 C         139.5494  143.4326  161.6256 C.3     1  UNL1        0.0286
      3 C         140.8498  144.1737  161.5273 C.3     1  UNL1        0.0193
      4 C         141.5712  144.5915  162.7744 C.3     1  UNL1        0.0700
      5 C         140.9921  144.2681  164.1198 C.3     1  UNL1        0.0193
      6 C         139.6916  143.5270  164.2181 C.3     1  UNL1        0.0286
      7 C         140.8615  144.1873  162.8786 C.3     1  UNL1        0.1562
      8 O         139.6856  143.5172  162.9675 O.3     1  UNL1       -0.3572
      9 N         142.8716  145.3326  162.6760 N.3     1  UNL1       -0.2926
     10 H         142.8535  146.0557  163.3952 H       1  UNL1        0.1236
     11 C         144.1685  144.5959  162.8352 C.3     1  UNL1        0.1152
     12 C         144.1983  143.0996  162.7353 C.ar    1  UNL1        0.0765
     13 C         144.5785  142.2756  163.9297 C.ar    1  UNL1        0.0193
     14 C         144.6083  140.7792  163.8298 C.ar    1  UNL1        0.0411
     15 C         144.2579  140.1068  162.5356 C.ar    1  UNL1        0.1708
     16 C         143.8778  140.9307  161.3412 C.ar    1  UNL1        0.1682
     17 N         143.8480  142.4272  161.4410 N.ar    1  UNL1       -0.2304
     18 N         143.5275  140.2583  160.0469 N.am    1  UNL1       -0.2639
     19 C         143.5573  138.7620  159.9470 C.2     1  UNL1        0.2718
     20 O         143.2070  138.0896  158.6528 O.2     1  UNL1       -0.2707
     21 C         143.9374  137.9380  161.1415 C.3     1  UNL1        0.2898
     22 O         144.2878  138.6104  162.4357 O.3     1  UNL1       -0.4628
     23 H         143.2780  140.7991  159.2630 H       1  UNL1        0.1565
     24 C         137.6699  142.3682  163.0693 C.3     1  UNL1        0.0320
     25 C         137.6294  141.0037  163.6911 C.3     1  UNL1        0.0327
     26 C         141.1657  139.3530  165.9317 C.ar    1  UNL1        0.2249
     27 C         141.9727  138.2352  165.3407 C.ar    1  UNL1        0.0593
     28 C         141.6010  137.6677  164.0029 C.ar    1  UNL1        0.0254
     29 C         140.4223  138.2179  163.2561 C.ar    1  UNL1        0.0990
     30 N         140.0505  137.6503  161.9182 N.ar    1  UNL1       -0.2400
     31 C         138.8718  138.2006  161.1714 C.ar    1  UNL1        0.1281
     32 C         138.0647  139.3184  161.7624 C.ar    1  UNL1        0.1566
     33 F         136.8860  139.8686  161.0155 F       1  UNL1       -0.2028
     34 C         138.4364  139.8859  163.1002 C.ar    1  UNL1        0.0261
     35 C         139.6152  139.3356  163.8470 C.ar    1  UNL1        0.1002
     36 N         139.9869  139.9032  165.1848 N.ar    1  UNL1       -0.2104
     37 O         141.5374  139.9205  167.2695 O.3     1  UNL1       -0.4602
     38 C         140.4676  140.4102  168.1999 C.3     1  UNL1        0.2075
     39 C         140.1155  141.8678  168.2372 C.3     1  UNL1        0.0533
     40 C         140.9284  142.8146  169.0695 C.3     1  UNL1        0.0455
     41 O         139.9571  142.6287  171.4721 O.co2   1  UNL1       -0.5492
     42 C         140.3207  143.4617  170.2787 C.2     1  UNL1        0.0505
     43 O         140.0765  144.9415  170.2945 O.co2   1  UNL1       -0.5492
@<TRIPOS>UNITY_ATOM_ATTR
41 1
charge -1
@<TRIPOS>BOND
     1    41    42   ar
     2    42    43   ar
     3    42    40    1
     4    40    39    1
     5    39    38    1
     6    38    37    1
     7    37    26    1
     8    26    27   ar
     9    27    28   ar
    10    28    29   ar
    11    29    30   ar
    12    30    31   ar
    13    31    32   ar
    14    32    33    1
    15    32    34   ar
    16    34    25    1
    17    25    24    1
    18    24     1    1
    19     1     2    1
    20     2     3    1
    21     3     4    1
    22     4     9    1
    23     9    11    1
    24    11    12    1
    25    12    13   ar
    26    13    14   ar
    27    14    15   ar
    28    15    16   ar
    29    16    17   ar
    30    16    18    1
    31    18    19   am
    32    19    20    2
    33    19    21    1
    34    21    22    1
    35     4     5    1
    36     5     6    1
    37     4     7    1
    38     7     8    1
    39    34    35   ar
    40    35    36   ar
    41    36    26   ar
    42    35    29   ar
    43     6     1    1
    44     8     1    1
    45    17    12   ar
    46    22    15    1
    47     9    10    1
    48    18    23    1
@<TRIPOS>MOLECULE
*****
 43 48 0 0 0
SMALL
GASTEIGER

@<TRIPOS>ATOM
      1 C         138.2298  140.4215  164.4882 C.3     1  UNL1        0.0932
      2 C         137.8408  140.4624  163.0401 C.3     1  UNL1        0.0286
      3 C         137.6620  141.7813  162.3485 C.3     1  UNL1        0.0193
      4 C         137.8721  143.0595  163.1050 C.3     1  UNL1        0.0700
      5 C         138.2611  143.0186  164.5531 C.3     1  UNL1        0.0193
      6 C         138.4399  141.6996  165.2447 C.3     1  UNL1        0.0286
      7 C         137.9817  142.3608  163.5267 C.3     1  UNL1        0.1562
      8 O         138.1434  141.1682  164.1521 O.3     1  UNL1       -0.3572
      9 N         137.6933  144.3784  162.4133 N.3     1  UNL1       -0.2926
     10 H         136.9088  144.8454  162.8681 H       1  UNL1        0.1236
     11 C         138.8224  145.3652  162.3767 C.3     1  UNL1        0.1152
     12 C         140.2362  144.8826  162.2411 C.ar    1  UNL1        0.0765
     13 C         141.2683  145.2917  163.2498 C.ar    1  UNL1        0.0193
     14 C         142.6820  144.8092  163.1142 C.ar    1  UNL1        0.0411
     15 C         143.0637  143.9175  161.9700 C.ar    1  UNL1        0.1708
     16 C         142.0317  143.5084  160.9614 C.ar    1  UNL1        0.1682
     17 N         140.6178  143.9910  161.0969 N.ar    1  UNL1       -0.2304
     18 N         142.4134  142.6167  159.8171 N.am    1  UNL1       -0.2639
     19 C         143.8271  142.1342  159.6816 C.2     1  UNL1        0.2718
     20 O         144.2088  141.2425  158.5373 O.2     1  UNL1       -0.2707
     21 C         144.8592  142.5433  160.6903 C.3     1  UNL1        0.2898
     22 O         144.4776  143.4349  161.8345 O.3     1  UNL1       -0.4628
     23 H         141.7360  142.3482  159.1551 H       1  UNL1        0.1565
     24 C         138.4086  139.1026  165.1799 C.3     1  UNL1        0.0320
     25 C         139.7652  138.4654  165.2407 C.3     1  UNL1        0.0327
     26 C         142.4562  141.6431  166.9468 C.ar    1  UNL1        0.2249
     27 C         143.5815  142.1947  166.1226 C.ar    1  UNL1        0.0593
     28 C         143.8098  141.6871  164.7297 C.ar    1  UNL1        0.0254
     29 C         142.9129  140.6279  164.1610 C.ar    1  UNL1        0.0990
     30 N         143.1412  140.1203  162.7680 N.ar    1  UNL1       -0.2400
     31 C         142.2442  139.0611  162.1993 C.ar    1  UNL1        0.1281
     32 C         141.1188  138.5094  163.0235 C.ar    1  UNL1        0.1566
     33 F         140.2219  137.4502  162.4548 F       1  UNL1       -0.2028
     34 C         140.8905  139.0170  164.4165 C.ar    1  UNL1        0.0261
     35 C         141.7876  140.0763  164.9852 C.ar    1  UNL1        0.1002
     36 N         141.5592  140.5839  166.3781 N.ar    1  UNL1       -0.2104
     37 O         142.2279  142.1507  168.3397 O.3     1  UNL1       -0.4602
     38 C         143.1289  141.7108  169.4553 C.3     1  UNL1        0.2075
     39 C         142.8663  140.4159  170.1653 C.3     1  UNL1        0.0533
     40 C         141.5178  139.7662  170.0662 C.3     1  UNL1        0.0455
     41 O         139.0095  139.6831  170.7382 O.co2   1  UNL1       -0.5492
     42 C         140.3819  140.2635  170.9104 C.2     1  UNL1        0.0505
     43 O         140.6185  141.3410  171.9267 O.co2   1  UNL1       -0.5492
@<TRIPOS>UNITY_ATOM_ATTR
41 1
charge -1
@<TRIPOS>BOND
     1    41    42   ar
     2    42    43   ar
     3    42    40    1
     4    40    39    1
     5    39    38    1
     6    38    37    1
     7    37    26    1
     8    26    27   ar
     9    27    28   ar
    10    28    29   ar
    11    29    30   ar
    12    30    31   ar
    13    31    32   ar
    14    32    33    1
    15    32    34   ar
    16    34    25    1
    17    25    24    1
    18    24     1    1
    19     1     2    1
    20     2     3    1
    21     3     4    1
    22     4     9    1
    23     9    11    1
    24    11    12    1
    25    12    13   ar
    26    13    14   ar
    27    14    15   ar
    28    15    16   ar
    29    16    17   ar
    30    16    18    1
    31    18    19   am
    32    19    20    2
    33    19    21    1
    34    21    22    1
    35     4     5    1
    36     5     6    1
    37     4     7    1
    38     7     8    1
    39    34    35   ar
    40    35    36   ar
    41    36    26   ar
    42    35    29   ar
    43     6     1    1
    44     8     1    1
    45    17    12   ar
    46    22    15    1
    47     9    10    1
    48    18    23    1
@<TRIPOS>MOLECULE
*****
 43 48 0 0 0
SMALL
GASTEIGER

@<TRIPOS>ATOM
      1 C         137.8414  141.9555  164.0537 C.3     1  UNL1        0.0932
      2 C         137.7185  141.6333  162.5938 C.3     1  UNL1        0.0286
      3 C         138.1181  140.2788  162.0885 C.3     1  UNL1        0.0193
      4 C         138.6407  139.2463  163.0429 C.3     1  UNL1        0.0700
      5 C         138.7636  139.5685  164.5028 C.3     1  UNL1        0.0193
      6 C         138.3640  140.9231  165.0081 C.3     1  UNL1        0.0286
      7 C         138.4343  139.9747  163.3667 C.3     1  UNL1        0.1562
      8 O         138.0729  141.1995  163.8237 O.3     1  UNL1       -0.3572
      9 N         139.0403  137.8918  162.5376 N.3     1  UNL1       -0.2926
     10 H         138.7803  137.8567  161.5519 H       1  UNL1        0.1236
     11 C         140.4716  137.4514  162.6237 C.3     1  UNL1        0.1152
     12 C         141.5759  138.4461  162.4211 C.ar    1  UNL1        0.0765
     13 C         142.8292  138.3526  163.2400 C.ar    1  UNL1        0.0193
     14 C         143.9334  139.3473  163.0374 C.ar    1  UNL1        0.0411
     15 C         143.7845  140.4356  162.0159 C.ar    1  UNL1        0.1708
     16 C         142.5313  140.5291  161.1970 C.ar    1  UNL1        0.1682
     17 N         141.4270  139.5343  161.3996 N.ar    1  UNL1       -0.2304
     18 N         142.3823  141.6174  160.1755 N.am    1  UNL1       -0.2639
     19 C         143.4866  142.6121  159.9729 C.2     1  UNL1        0.2718
     20 O         143.3376  143.7003  158.9513 O.2     1  UNL1       -0.2707
     21 C         144.7399  142.5186  160.7918 C.3     1  UNL1        0.2898
     22 O         144.8888  141.4303  161.8133 O.3     1  UNL1       -0.4628
     23 H         141.5598  141.6787  159.6380 H       1  UNL1        0.1565
     24 C         137.4418  143.3100  164.5590 C.3     1  UNL1        0.0320
     25 C         138.4929  144.2922  164.9840 C.3     1  UNL1        0.0327
     26 C         142.1541  142.2621  166.6346 C.ar    1  UNL1        0.2249
     27 C         143.4540  142.3385  165.8900 C.ar    1  UNL1        0.0593
     28 C         143.5335  143.0916  164.5952 C.ar    1  UNL1        0.0254
     29 C         142.3131  143.7683  164.0450 C.ar    1  UNL1        0.0990
     30 N         142.3926  144.5215  162.7502 N.ar    1  UNL1       -0.2400
     31 C         141.1723  145.1981  162.2000 C.ar    1  UNL1        0.1281
     32 C         139.8723  145.1217  162.9446 C.ar    1  UNL1        0.1566
     33 F         138.6520  145.7984  162.3944 F       1  UNL1       -0.2028
     34 C         139.7928  144.3686  164.2394 C.ar    1  UNL1        0.0261
     35 C         141.0133  143.6919  164.7896 C.ar    1  UNL1        0.1002
     36 N         140.9337  142.9388  166.0844 N.ar    1  UNL1       -0.2104
     37 O         142.0746  141.5089  167.9294 O.3     1  UNL1       -0.4602
     38 C         141.1140  140.3660  168.0745 C.3     1  UNL1        0.2075
     39 C         140.4220  140.1296  169.3841 C.3     1  UNL1        0.0533
     40 C         139.4457  141.1400  169.9096 C.3     1  UNL1        0.0455
     41 O         140.4280  142.3028  172.0151 O.co2   1  UNL1       -0.5492
     42 C         139.9433  142.3766  170.5974 C.2     1  UNL1        0.0505
     43 O         139.9563  143.6870  169.8676 O.co2   1  UNL1       -0.5492
@<TRIPOS>UNITY_ATOM_ATTR
41 1
charge -1
@<TRIPOS>BOND
     1    41    42   ar
     2    42    43   ar
     3    42    40    1
     4    40    39    1
     5    39    38    1
     6    38    37    1
     7    37    26    1
     8    26    27   ar
     9    27    28   ar
    10    28    29   ar
    11    29    30   ar
    12    30    31   ar
    13    31    32   ar
    14    32    33    1
    15    32    34   ar
    16    34    25    1
    17    25    24    1
    18    24     1    1
    19     1     2    1
    20     2     3    1
    21     3     4    1
    22     4     9    1
    23     9    11    1
    24    11    12    1
    25    12    13   ar
    26    13    14   ar
    27    14    15   ar
    28    15    16   ar
    29    16    17   ar
    30    16    18    1
    31    18    19   am
    32    19    20    2
    33    19    21    1
    34    21    22    1
    35     4     5    1
    36     5     6    1
    37     4     7    1
    38     7     8    1
    39    34    35   ar
    40    35    36   ar
    41    36    26   ar
    42    35    29   ar
    43     6     1    1
    44     8     1    1
    45    17    12   ar
    46    22    15    1
    47     9    10    1
    48    18    23    1
@<TRIPOS>MOLECULE
*****
 43 48 0 0 0
SMALL
GASTEIGER

@<TRIPOS>ATOM
      1 C         138.6462  140.0572  164.9414 C.3     1  UNL1        0.0932
      2 C         137.7263  140.5399  163.8594 C.3     1  UNL1        0.0286
      3 C         137.5915  142.0092  163.5898 C.3     1  UNL1        0.0193
      4 C         138.3765  142.9960  164.4023 C.3     1  UNL1        0.0700
      5 C         139.2964  142.5133  165.4844 C.3     1  UNL1        0.0193
      6 C         139.4312  141.0439  165.7539 C.3     1  UNL1        0.0286
      7 C         138.4835  142.2007  164.5868 C.3     1  UNL1        0.1562
      8 O         138.6055  140.8721  164.8306 O.3     1  UNL1       -0.3572
      9 N         138.2416  144.4654  164.1328 N.3     1  UNL1       -0.2926
     10 H         138.5352  144.9486  164.9817 H       1  UNL1        0.1236
     11 C         138.9937  145.0915  162.9960 C.3     1  UNL1        0.1152
     12 C         140.4100  144.6829  162.7183 C.ar    1  UNL1        0.0765
     13 C         141.5334  145.2871  163.5076 C.ar    1  UNL1        0.0193
     14 C         142.9497  144.8785  163.2299 C.ar    1  UNL1        0.0411
     15 C         143.2426  143.8657  162.1629 C.ar    1  UNL1        0.1708
     16 C         142.1193  143.2615  161.3736 C.ar    1  UNL1        0.1682
     17 N         140.7029  143.6701  161.6513 N.ar    1  UNL1       -0.2304
     18 N         142.4122  142.2487  160.3067 N.am    1  UNL1       -0.2639
     19 C         143.8285  141.8400  160.0290 C.2     1  UNL1        0.2718
     20 O         144.1214  140.8272  158.9620 O.2     1  UNL1       -0.2707
     21 C         144.9519  142.4442  160.8183 C.3     1  UNL1        0.2898
     22 O         144.6590  143.4571  161.8852 O.3     1  UNL1       -0.4628
     23 H         141.6749  141.8521  159.7886 H       1  UNL1        0.1565
     24 C         138.7811  138.5878  165.2110 C.3     1  UNL1        0.0320
     25 C         139.2625  137.6678  164.1285 C.3     1  UNL1        0.0327
     26 C         143.1634  138.7261  166.1066 C.ar    1  UNL1        0.2249
     27 C         144.3491  139.1073  165.2706 C.ar    1  UNL1        0.0593
     28 C         144.2344  139.1357  163.7753 C.ar    1  UNL1        0.0254
     29 C         142.9342  138.7830  163.1159 C.ar    1  UNL1        0.0990
     30 N         142.8196  138.8114  161.6206 N.ar    1  UNL1       -0.2400
     31 C         141.5193  138.4587  160.9612 C.ar    1  UNL1        0.1281
     32 C         140.3336  138.0774  161.7972 C.ar    1  UNL1        0.1566
     33 F         139.0333  137.7247  161.1378 F       1  UNL1       -0.2028
     34 C         140.4482  138.0490  163.2925 C.ar    1  UNL1        0.0261
     35 C         141.7485  138.4018  163.9519 C.ar    1  UNL1        0.1002
     36 N         141.8632  138.3733  165.4472 N.ar    1  UNL1       -0.2104
     37 O         143.2781  138.6976  167.6019 O.3     1  UNL1       -0.4602
     38 C         142.5562  139.7197  168.4291 C.3     1  UNL1        0.2075
     39 C         142.0851  139.3704  169.8097 C.3     1  UNL1        0.0533
     40 C         140.7533  139.8618  170.2944 C.3     1  UNL1        0.0455
     41 O         140.6962  141.9357  171.8584 O.co2   1  UNL1       -0.5492
     42 C         140.5241  141.3303  170.4968 C.2     1  UNL1        0.0505
     43 O         140.1228  142.1935  169.3375 O.co2   1  UNL1       -0.5492
@<TRIPOS>UNITY_ATOM_ATTR
41 1
charge -1
@<TRIPOS>BOND
     1    41    42   ar
     2    42    43   ar
     3    42    40    1
     4    40    39    1
     5    39    38    1
     6    38    37    1
     7    37    26    1
     8    26    27   ar
     9    27    28   ar
    10    28    29   ar
    11    29    30   ar
    12    30    31   ar
    13    31    32   ar
    14    32    33    1
    15    32    34   ar
    16    34    25    1
    17    25    24    1
    18    24     1    1
    19     1     2    1
    20     2     3    1
    21     3     4    1
    22     4     9    1
    23     9    11    1
    24    11    12    1
    25    12    13   ar
    26    13    14   ar
    27    14    15   ar
    28    15    16   ar
    29    16    17   ar
    30    16    18    1
    31    18    19   am
    32    19    20    2
    33    19    21    1
    34    21    22    1
    35     4     5    1
    36     5     6    1
    37     4     7    1
    38     7     8    1
    39    34    35   ar
    40    35    36   ar
    41    36    26   ar
    42    35    29   ar
    43     6     1    1
    44     8     1    1
    45    17    12   ar
    46    22    15    1
    47     9    10    1
    48    18    23    1
@<TRIPOS>MOLECULE
*****
 43 48 0 0 0
SMALL
GASTEIGER

@<TRIPOS>ATOM
      1 C         137.6629  142.5279  163.5813 C.3     1  UNL1        0.0932
      2 C         137.7250  142.4622  162.0840 C.3     1  UNL1        0.0286
      3 C         137.8308  141.1338  161.3953 C.3     1  UNL1        0.0193
      4 C         137.8743  139.8711  162.2039 C.3     1  UNL1        0.0700
      5 C         137.8122  139.9369  163.7012 C.3     1  UNL1        0.0193
      6 C         137.7065  141.2653  164.3899 C.3     1  UNL1        0.0286
      7 C         137.8160  140.5757  162.6260 C.3     1  UNL1        0.1562
      8 O         137.7205  141.7768  163.2487 O.3     1  UNL1       -0.3572
      9 N         137.9800  138.5428  161.5153 N.3     1  UNL1       -0.2926
     10 H         137.4250  138.6085  160.6620 H       1  UNL1        0.1236
     11 C         139.3242  138.0092  161.1173 C.3     1  UNL1        0.1152
     12 C         140.5054  138.2019  162.0216 C.ar    1  UNL1        0.0765
     13 C         140.6204  137.4029  163.2859 C.ar    1  UNL1        0.0193
     14 C         141.8015  137.5957  164.1901 C.ar    1  UNL1        0.0411
     15 C         142.8677  138.5875  163.8301 C.ar    1  UNL1        0.1708
     16 C         142.7528  139.3865  162.5659 C.ar    1  UNL1        0.1682
     17 N         141.5716  139.1937  161.6615 N.ar    1  UNL1       -0.2304
     18 N         143.8190  140.3782  162.2058 N.am    1  UNL1       -0.2639
     19 C         145.0001  140.5710  163.1101 C.2     1  UNL1        0.2718
     20 O         146.0663  141.5628  162.7500 O.2     1  UNL1       -0.2707
     21 C         145.1151  139.7720  164.3744 C.3     1  UNL1        0.2898
     22 O         144.0489  138.7803  164.7344 O.3     1  UNL1       -0.4628
     23 H         143.7435  140.9026  161.3760 H       1  UNL1        0.1565
     24 C         137.5572  143.8562  164.2699 C.3     1  UNL1        0.0320
     25 C         138.7591  144.4498  164.9431 C.3     1  UNL1        0.0327
     26 C         142.4086  142.5114  166.7246 C.ar    1  UNL1        0.2249
     27 C         143.7201  142.5733  165.9995 C.ar    1  UNL1        0.0593
     28 C         143.8153  143.2813  164.6805 C.ar    1  UNL1        0.0254
     29 C         142.5988  143.9274  164.0867 C.ar    1  UNL1        0.0990
     30 N         142.6940  144.6355  162.7677 N.ar    1  UNL1       -0.2400
     31 C         141.4775  145.2816  162.1739 C.ar    1  UNL1        0.1281
     32 C         140.1658  145.2197  162.8990 C.ar    1  UNL1        0.1566
     33 F         138.9494  145.8659  162.3052 F       1  UNL1       -0.2028
     34 C         140.0707  144.5117  164.2180 C.ar    1  UNL1        0.0261
     35 C         141.2872  143.8655  164.8118 C.ar    1  UNL1        0.1002
     36 N         141.1921  143.1575  166.1308 N.ar    1  UNL1       -0.2104
     37 O         142.3134  141.8033  168.0436 O.3     1  UNL1       -0.4602
     38 C         141.0492  141.8810  168.8470 C.3     1  UNL1        0.2075
     39 C         140.4637  140.6368  169.4462 C.3     1  UNL1        0.0533
     40 C         139.1173  140.1504  168.9981 C.3     1  UNL1        0.0455
     41 O         140.0294  139.6345  166.6207 O.co2   1  UNL1       -0.5492
     42 C         138.9697  139.4698  167.6696 C.2     1  UNL1        0.0505
     43 O         137.7626  138.6245  167.3899 O.co2   1  UNL1       -0.5492
@<TRIPOS>UNITY_ATOM_ATTR
41 1
charge -1
@<TRIPOS>BOND
     1    41    42   ar
     2    42    43   ar
     3    42    40    1
     4    40    39    1
     5    39    38    1
     6    38    37    1
     7    37    26    1
     8    26    27   ar
     9    27    28   ar
    10    28    29   ar
    11    29    30   ar
    12    30    31   ar
    13    31    32   ar
    14    32    33    1
    15    32    34   ar
    16    34    25    1
    17    25    24    1
    18    24     1    1
    19     1     2    1
    20     2     3    1
    21     3     4    1
    22     4     9    1
    23     9    11    1
    24    11    12    1
    25    12    13   ar
    26    13    14   ar
    27    14    15   ar
    28    15    16   ar
    29    16    17   ar
    30    16    18    1
    31    18    19   am
    32    19    20    2
    33    19    21    1
    34    21    22    1
    35     4     5    1
    36     5     6    1
    37     4     7    1
    38     7     8    1
    39    34    35   ar
    40    35    36   ar
    41    36    26   ar
    42    35    29   ar
    43     6     1    1
    44     8     1    1
    45    17    12   ar
    46    22    15    1
    47     9    10    1
    48    18    23    1
