@<TRIPOS>MOLECULE
*****
 39 43 0 0 0
SMALL
GASTEIGER

@<TRIPOS>ATOM
      1 C         143.8098  141.5920  163.9096 C.3     1  UNL1        0.0080
      2 C         143.9719  140.1029  163.9897 C.3     1  UNL1        0.0177
      3 C         143.6823  139.2513  162.7893 C.3     1  UNL1        0.0721
      4 N         143.2305  139.8888  161.5088 N.3     1  UNL1       -0.2736
      5 C         143.0685  141.3778  161.4287 C.3     1  UNL1        0.0776
      6 C         143.3581  142.2295  162.6291 C.3     1  UNL1        0.0525
      7 C         142.9409  139.0372  160.3085 C.3     1  UNL1        0.0582
      8 C         142.8259  137.5630  160.0567 C.3     1  UNL1        0.0204
      9 C         142.5313  137.8328  158.6108 C.3     1  UNL1        0.0252
     10 C         142.6462  139.3071  158.8626 C.3     1  UNL1        0.0204
     11 C         142.2416  136.9813  157.4105 C.ar    1  UNL1       -0.0180
     12 C         143.2201  135.9270  156.9851 C.ar    1  UNL1        0.0255
     13 C         142.9305  135.0754  155.7847 C.ar    1  UNL1        0.1421
     14 F         143.9090  134.0211  155.3594 F       1  UNL1       -0.2041
     15 C         141.6624  135.2781  155.0097 C.ar    1  UNL1        0.0592
     16 C         140.6838  136.3324  155.4351 C.ar    1  UNL1        0.1421
     17 F         139.4156  136.5352  154.6601 F       1  UNL1       -0.2041
     18 C         140.9734  137.1840  156.6354 C.ar    1  UNL1        0.0255
     19 C         143.1960  143.7185  162.5490 C.2     1  UNL1        0.0513
     20 O         141.8276  144.3287  162.6181 O.co2   1  UNL1       -0.5491
     21 O         144.4025  144.5973  162.3998 O.co2   1  UNL1       -0.5491
     22 C         144.0995  142.4436  165.1099 C.3     1  UNL1        0.0033
     23 C         143.1845  142.4014  166.2978 C.3     1  UNL1        0.0339
     24 C         141.6996  142.4893  166.1043 C.3     1  UNL1        0.1350
     25 O         141.1217  143.5396  165.2026 O.3     1  UNL1       -0.3800
     26 H         141.8391  144.0737  164.8270 H       1  UNL1        0.2108
     27 C         139.7653  139.1267  163.8237 C.ar    1  UNL1        0.1388
     28 C         138.8583  138.1645  164.5319 C.ar    1  UNL1        0.0384
     29 C         138.5961  138.3232  166.0003 C.ar    1  UNL1        0.0222
     30 C         139.2409  139.4440  166.7605 C.ar    1  UNL1        0.0814
     31 N         138.9787  139.6026  168.2288 N.ar    1  UNL1       -0.2415
     32 C         139.6235  140.7235  168.9890 C.ar    1  UNL1        0.1281
     33 C         140.5305  141.6858  168.2808 C.ar    1  UNL1        0.1575
     34 F         141.1753  142.8066  169.0410 F       1  UNL1       -0.2028
     35 C         140.7927  141.5271  166.8125 C.ar    1  UNL1        0.0348
     36 C         140.1479  140.4062  166.0523 C.ar    1  UNL1        0.0212
     37 C         140.4100  140.2476  164.5839 C.ar    1  UNL1        0.0382
     38 C         139.0008  138.3177  161.4762 C.3     1  UNL1        0.2525
     39 O         140.0274  138.9681  162.3553 O.3     1  UNL1       -0.4714
@<TRIPOS>UNITY_ATOM_ATTR
20 1
charge -1
@<TRIPOS>BOND
     1    38    39    1
     2    39    27    1
     3    27    28   ar
     4    28    29   ar
     5    29    30   ar
     6    30    31   ar
     7    31    32   ar
     8    32    33   ar
     9    33    34    1
    10    33    35   ar
    11    35    24    1
    12    24    25    1
    13    24    23    1
    14    23    22    1
    15     1    22    1
    16     1     2    1
    17     2     3    1
    18     3     4    1
    19     4     7    1
    20     7     8    1
    21     8     9    1
    22     9    11    1
    23    11    12   ar
    24    12    13   ar
    25    13    14    1
    26    13    15   ar
    27    15    16   ar
    28    16    17    1
    29    16    18   ar
    30     9    10    1
    31     4     5    1
    32     5     6    1
    33     6    19    1
    34    19    20   ar
    35    19    21   ar
    36    35    36   ar
    37    36    37   ar
    38    37    27   ar
    39    36    30   ar
    40     6     1    1
    41    10     7    1
    42    18    11   ar
    43    25    26    1
@<TRIPOS>MOLECULE
*****
 39 43 0 0 0
SMALL
GASTEIGER

@<TRIPOS>ATOM
      1 C         139.8696  142.7671  160.2844 C.3     1  UNL1        0.0080
      2 C         139.7229  141.4140  160.9150 C.3     1  UNL1        0.0177
      3 C         139.9412  141.2461  162.3895 C.3     1  UNL1        0.0721
      4 N         140.3062  142.4312  163.2334 N.3     1  UNL1       -0.2736
      5 C         140.4529  143.7843  162.6028 C.3     1  UNL1        0.0776
      6 C         140.2346  143.9523  161.1283 C.3     1  UNL1        0.0525
      7 C         140.5245  142.2633  164.7078 C.3     1  UNL1        0.0582
      8 C         141.3182  141.3195  165.5619 C.3     1  UNL1        0.0204
      9 C         140.8333  142.0258  166.7932 C.3     1  UNL1        0.0252
     10 C         140.0396  142.9696  165.9391 C.3     1  UNL1        0.0204
     11 C         141.0516  141.8579  168.2676 C.ar    1  UNL1       -0.0180
     12 C         142.0227  142.7456  168.9879 C.ar    1  UNL1        0.0255
     13 C         142.2411  142.5777  170.4624 C.ar    1  UNL1        0.1421
     14 F         143.2123  143.4654  171.1827 F       1  UNL1       -0.2041
     15 C         141.4882  141.5221  171.2167 C.ar    1  UNL1        0.0592
     16 C         140.5170  140.6344  170.4964 C.ar    1  UNL1        0.1421
     17 F         139.7641  139.5788  171.2506 F       1  UNL1       -0.2041
     18 C         140.2987  140.8023  169.0219 C.ar    1  UNL1        0.0255
     19 C         140.3813  145.3053  160.4977 C.2     1  UNL1        0.0513
     20 O         141.5441  145.5894  159.5938 O.co2   1  UNL1       -0.5491
     21 O         139.3652  146.3743  160.7711 O.co2   1  UNL1       -0.5491
     22 C         139.6513  142.9350  158.8099 C.3     1  UNL1        0.0033
     23 C         140.6766  142.4313  157.8378 C.3     1  UNL1        0.0339
     24 C         142.1315  142.4555  158.2024 C.3     1  UNL1        0.1350
     25 O         142.9924  143.6074  157.7760 O.3     1  UNL1       -0.3800
     26 H         142.4569  144.2442  157.2774 H       1  UNL1        0.2108
     27 C         144.2586  143.3004  162.0768 C.ar    1  UNL1        0.1388
     28 C         144.8525  142.1727  162.8678 C.ar    1  UNL1        0.0384
     29 C         144.7373  140.7634  162.3673 C.ar    1  UNL1        0.0222
     30 C         144.0282  140.4817  161.0758 C.ar    1  UNL1        0.0814
     31 N         143.9130  139.0724  160.5753 N.ar    1  UNL1       -0.2415
     32 C         143.2040  138.7907  159.2838 C.ar    1  UNL1        0.1281
     33 C         142.6101  139.9185  158.4928 C.ar    1  UNL1        0.1575
     34 F         141.9011  139.6368  157.2014 F       1  UNL1       -0.2028
     35 C         142.7253  141.3278  158.9933 C.ar    1  UNL1        0.0348
     36 C         143.4344  141.6094  160.2849 C.ar    1  UNL1        0.0212
     37 C         143.5496  143.0187  160.7854 C.ar    1  UNL1        0.0382
     38 C         143.6746  145.1165  163.8405 C.3     1  UNL1        0.2525
     39 O         144.3738  144.7097  162.5774 O.3     1  UNL1       -0.4714
@<TRIPOS>UNITY_ATOM_ATTR
20 1
charge -1
@<TRIPOS>BOND
     1    38    39    1
     2    39    27    1
     3    27    28   ar
     4    28    29   ar
     5    29    30   ar
     6    30    31   ar
     7    31    32   ar
     8    32    33   ar
     9    33    34    1
    10    33    35   ar
    11    35    24    1
    12    24    25    1
    13    24    23    1
    14    23    22    1
    15     1    22    1
    16     1     2    1
    17     2     3    1
    18     3     4    1
    19     4     7    1
    20     7     8    1
    21     8     9    1
    22     9    11    1
    23    11    12   ar
    24    12    13   ar
    25    13    14    1
    26    13    15   ar
    27    15    16   ar
    28    16    17    1
    29    16    18   ar
    30     9    10    1
    31     4     5    1
    32     5     6    1
    33     6    19    1
    34    19    20   ar
    35    19    21   ar
    36    35    36   ar
    37    36    37   ar
    38    37    27   ar
    39    36    30   ar
    40     6     1    1
    41    10     7    1
    42    18    11   ar
    43    25    26    1
@<TRIPOS>MOLECULE
*****
 39 43 0 0 0
SMALL
GASTEIGER

@<TRIPOS>ATOM
      1 C         140.0651  142.3099  164.9554 C.3     1  UNL1        0.0080
      2 C         140.2414  143.7894  164.7816 C.3     1  UNL1        0.0177
      3 C         140.3157  144.3792  163.4045 C.3     1  UNL1        0.0721
      4 N         140.2137  143.4896  162.2011 N.3     1  UNL1       -0.2736
      5 C         140.0374  142.0102  162.3748 C.3     1  UNL1        0.0776
      6 C         139.9631  141.4203  163.7519 C.3     1  UNL1        0.0525
      7 C         140.2880  144.0795  160.8239 C.3     1  UNL1        0.0582
      8 C         140.9658  145.2714  160.2157 C.3     1  UNL1        0.0204
      9 C         140.3931  144.9137  158.8763 C.3     1  UNL1        0.0252
     10 C         139.7153  143.7218  159.4845 C.3     1  UNL1        0.0204
     11 C         140.4674  145.5035  157.4991 C.ar    1  UNL1       -0.0180
     12 C         141.5322  145.0494  156.5452 C.ar    1  UNL1        0.0255
     13 C         141.6065  145.6392  155.1680 C.ar    1  UNL1        0.1421
     14 F         142.6713  145.1850  154.2141 F       1  UNL1       -0.2041
     15 C         140.6161  146.6832  154.7448 C.ar    1  UNL1        0.0592
     16 C         139.5513  147.1373  155.6988 C.ar    1  UNL1        0.1421
     17 F         138.5608  148.1813  155.2756 F       1  UNL1       -0.2041
     18 C         139.4770  146.5475  157.0759 C.ar    1  UNL1        0.0255
     19 C         139.7868  139.9409  163.9256 C.2     1  UNL1        0.0513
     20 O         138.4302  139.3779  164.2299 O.co2   1  UNL1       -0.5491
     21 O         140.9671  139.0245  163.7951 O.co2   1  UNL1       -0.5491
     22 C         139.9908  141.7201  166.3325 C.3     1  UNL1        0.0033
     23 C         140.7933  142.3191  167.4492 C.3     1  UNL1        0.0339
     24 C         142.2526  141.9975  167.5805 C.3     1  UNL1        0.1350
     25 O         143.1141  142.7910  168.5176 O.3     1  UNL1       -0.3800
     26 H         142.5758  143.4677  168.9570 H       1  UNL1        0.2108
     27 C         144.2844  142.8892  163.6655 C.ar    1  UNL1        0.1388
     28 C         144.8821  141.7741  162.8597 C.ar    1  UNL1        0.0384
     29 C         144.8025  140.3619  163.3589 C.ar    1  UNL1        0.0222
     30 C         144.1253  140.0646  164.6638 C.ar    1  UNL1        0.0814
     31 N         144.0457  138.6523  165.1629 N.ar    1  UNL1       -0.2415
     32 C         143.3685  138.3551  166.4679 C.ar    1  UNL1        0.1281
     33 C         142.7707  139.4702  167.2738 C.ar    1  UNL1        0.1575
     34 F         142.0935  139.1729  168.5787 F       1  UNL1       -0.2028
     35 C         142.8503  140.8825  166.7746 C.ar    1  UNL1        0.0348
     36 C         143.5276  141.1797  165.4696 C.ar    1  UNL1        0.0212
     37 C         143.6072  142.5919  164.9705 C.ar    1  UNL1        0.0382
     38 C         143.6720  145.4017  163.9152 C.3     1  UNL1        0.2525
     39 O         144.3640  144.3015  163.1664 O.3     1  UNL1       -0.4714
@<TRIPOS>UNITY_ATOM_ATTR
20 1
charge -1
@<TRIPOS>BOND
     1    38    39    1
     2    39    27    1
     3    27    28   ar
     4    28    29   ar
     5    29    30   ar
     6    30    31   ar
     7    31    32   ar
     8    32    33   ar
     9    33    34    1
    10    33    35   ar
    11    35    24    1
    12    24    25    1
    13    24    23    1
    14    23    22    1
    15     1    22    1
    16     1     2    1
    17     2     3    1
    18     3     4    1
    19     4     7    1
    20     7     8    1
    21     8     9    1
    22     9    11    1
    23    11    12   ar
    24    12    13   ar
    25    13    14    1
    26    13    15   ar
    27    15    16   ar
    28    16    17    1
    29    16    18   ar
    30     9    10    1
    31     4     5    1
    32     5     6    1
    33     6    19    1
    34    19    20   ar
    35    19    21   ar
    36    35    36   ar
    37    36    37   ar
    38    37    27   ar
    39    36    30   ar
    40     6     1    1
    41    10     7    1
    42    18    11   ar
    43    25    26    1
@<TRIPOS>MOLECULE
*****
 39 43 0 0 0
SMALL
GASTEIGER

@<TRIPOS>ATOM
      1 C         143.1667  141.3161  165.8734 C.3     1  UNL1        0.0080
      2 C         143.4597  142.6798  165.3214 C.3     1  UNL1        0.0177
      3 C         143.7152  142.8559  163.8539 C.3     1  UNL1        0.0721
      4 N         143.6777  141.6683  162.9383 N.3     1  UNL1       -0.2736
      5 C         143.3848  140.3047  163.4902 C.3     1  UNL1        0.0776
      6 C         143.1292  140.1286  164.9578 C.3     1  UNL1        0.0525
      7 C         143.9333  141.8444  161.4708 C.3     1  UNL1        0.0582
      8 C         143.8008  140.9707  160.2587 C.3     1  UNL1        0.0204
      9 C         144.2946  142.0934  159.3952 C.3     1  UNL1        0.0252
     10 C         144.4271  142.9672  160.6073 C.3     1  UNL1        0.0204
     11 C         144.5501  142.2695  157.9277 C.ar    1  UNL1       -0.0180
     12 C         143.4039  142.5095  156.9904 C.ar    1  UNL1        0.0255
     13 C         143.6594  142.6856  155.5228 C.ar    1  UNL1        0.1421
     14 F         142.5132  142.9255  154.5855 F       1  UNL1       -0.2041
     15 C         145.0611  142.6217  154.9926 C.ar    1  UNL1        0.0592
     16 C         146.2074  142.3818  155.9300 C.ar    1  UNL1        0.1421
     17 F         147.6091  142.3179  155.3998 F       1  UNL1       -0.2041
     18 C         145.9519  142.2057  157.3975 C.ar    1  UNL1        0.0255
     19 C         142.8363  138.7649  165.5097 C.2     1  UNL1        0.0513
     20 O         141.4950  138.1345  165.2782 O.co2   1  UNL1       -0.5491
     21 O         143.8845  138.0318  166.2930 O.co2   1  UNL1       -0.5491
     22 C         142.9112  141.1400  167.3409 C.3     1  UNL1        0.0033
     23 C         142.2811  142.2486  168.1308 C.3     1  UNL1        0.0339
     24 C         140.7924  142.4312  168.1114 C.3     1  UNL1        0.1350
     25 O         140.1617  143.5349  168.9077 O.3     1  UNL1       -0.3800
     26 H         140.8518  144.0328  169.3732 H       1  UNL1        0.2108
     27 C         139.3343  143.7182  164.0534 C.ar    1  UNL1        0.1388
     28 C         138.4763  142.7970  163.2379 C.ar    1  UNL1        0.0384
     29 C         138.1043  141.4468  163.7750 C.ar    1  UNL1        0.0222
     30 C         138.5903  141.0178  165.1276 C.ar    1  UNL1        0.0814
     31 N         138.2183  139.6675  165.6647 N.ar    1  UNL1       -0.2415
     32 C         138.7043  139.2385  167.0174 C.ar    1  UNL1        0.1281
     33 C         139.5623  140.1597  167.8330 C.ar    1  UNL1        0.1575
     34 F         140.0483  139.7307  169.1856 F       1  UNL1       -0.2028
     35 C         139.9344  141.5099  167.2959 C.ar    1  UNL1        0.0348
     36 C         139.4483  141.9390  165.9432 C.ar    1  UNL1        0.0212
     37 C         139.8203  143.2892  165.4061 C.ar    1  UNL1        0.0382
     38 C         141.1285  145.3595  163.1385 C.3     1  UNL1        0.2525
     39 O         139.7063  145.0685  163.5163 O.3     1  UNL1       -0.4714
@<TRIPOS>UNITY_ATOM_ATTR
20 1
charge -1
@<TRIPOS>BOND
     1    38    39    1
     2    39    27    1
     3    27    28   ar
     4    28    29   ar
     5    29    30   ar
     6    30    31   ar
     7    31    32   ar
     8    32    33   ar
     9    33    34    1
    10    33    35   ar
    11    35    24    1
    12    24    25    1
    13    24    23    1
    14    23    22    1
    15     1    22    1
    16     1     2    1
    17     2     3    1
    18     3     4    1
    19     4     7    1
    20     7     8    1
    21     8     9    1
    22     9    11    1
    23    11    12   ar
    24    12    13   ar
    25    13    14    1
    26    13    15   ar
    27    15    16   ar
    28    16    17    1
    29    16    18   ar
    30     9    10    1
    31     4     5    1
    32     5     6    1
    33     6    19    1
    34    19    20   ar
    35    19    21   ar
    36    35    36   ar
    37    36    37   ar
    38    37    27   ar
    39    36    30   ar
    40     6     1    1
    41    10     7    1
    42    18    11   ar
    43    25    26    1
@<TRIPOS>MOLECULE
*****
 39 43 0 0 0
SMALL
GASTEIGER

@<TRIPOS>ATOM
      1 C         141.5112  144.0370  162.8424 C.3     1  UNL1        0.0080
      2 C         142.1716  143.9055  161.5020 C.3     1  UNL1        0.0177
      3 C         141.4218  143.2999  160.3527 C.3     1  UNL1        0.0721
      4 N         140.0116  142.8256  160.5437 N.3     1  UNL1       -0.2736
      5 C         139.3513  142.9571  161.8841 C.3     1  UNL1        0.0776
      6 C         140.1011  143.5628  163.0335 C.3     1  UNL1        0.0525
      7 C         139.2618  142.2199  159.3945 C.3     1  UNL1        0.0582
      8 C         138.8344  142.6964  158.0379 C.3     1  UNL1        0.0204
      9 C         138.2014  141.3633  157.7690 C.3     1  UNL1        0.0252
     10 C         138.6289  140.8868  159.1256 C.3     1  UNL1        0.0204
     11 C         137.4516  140.7577  156.6197 C.ar    1  UNL1       -0.0180
     12 C         138.1767  139.9173  155.6108 C.ar    1  UNL1        0.0255
     13 C         137.4269  139.3115  154.4614 C.ar    1  UNL1        0.1421
     14 F         138.1519  138.4711  153.4525 F       1  UNL1       -0.2041
     15 C         135.9520  139.5462  154.3211 C.ar    1  UNL1        0.0592
     16 C         135.2270  140.3867  155.3301 C.ar    1  UNL1        0.1421
     17 F         133.7521  140.6214  155.1897 F       1  UNL1       -0.2041
     18 C         135.9768  140.9924  156.4793 C.ar    1  UNL1        0.0255
     19 C         139.4407  143.6942  164.3738 C.2     1  UNL1        0.0513
     20 O         139.2040  142.4757  165.2159 O.co2   1  UNL1       -0.5491
     21 O         139.0170  145.0441  164.8720 O.co2   1  UNL1       -0.5491
     22 C         142.2610  144.6427  163.9917 C.3     1  UNL1        0.0033
     23 C         143.7579  144.5582  164.0384 C.3     1  UNL1        0.0339
     24 C         144.4283  143.6818  165.0547 C.3     1  UNL1        0.1350
     25 O         145.2772  144.2937  166.1293 O.3     1  UNL1       -0.3800
     26 H         145.2871  145.2579  166.0239 H       1  UNL1        0.2108
     27 C         141.3969  141.6735  167.7056 C.ar    1  UNL1        0.1388
     28 C         141.2184  140.1853  167.6471 C.ar    1  UNL1        0.0384
     29 C         142.0503  139.3666  166.7049 C.ar    1  UNL1        0.0222
     30 C         143.0607  140.0360  165.8213 C.ar    1  UNL1        0.0814
     31 N         143.8926  139.2173  164.8791 N.ar    1  UNL1       -0.2415
     32 C         144.9031  139.8867  163.9955 C.ar    1  UNL1        0.1281
     33 C         145.0816  141.3750  164.0540 C.ar    1  UNL1        0.1575
     34 F         146.0921  142.0444  163.1704 F       1  UNL1       -0.2028
     35 C         144.2497  142.1937  164.9961 C.ar    1  UNL1        0.0348
     36 C         143.2393  141.5242  165.8798 C.ar    1  UNL1        0.0212
     37 C         142.4074  142.3429  166.8219 C.ar    1  UNL1        0.0382
     38 C         139.9673  141.8556  169.8673 C.3     1  UNL1        0.2525
     39 O         140.5651  142.4922  168.6477 O.3     1  UNL1       -0.4714
@<TRIPOS>UNITY_ATOM_ATTR
20 1
charge -1
@<TRIPOS>BOND
     1    38    39    1
     2    39    27    1
     3    27    28   ar
     4    28    29   ar
     5    29    30   ar
     6    30    31   ar
     7    31    32   ar
     8    32    33   ar
     9    33    34    1
    10    33    35   ar
    11    35    24    1
    12    24    25    1
    13    24    23    1
    14    23    22    1
    15     1    22    1
    16     1     2    1
    17     2     3    1
    18     3     4    1
    19     4     7    1
    20     7     8    1
    21     8     9    1
    22     9    11    1
    23    11    12   ar
    24    12    13   ar
    25    13    14    1
    26    13    15   ar
    27    15    16   ar
    28    16    17    1
    29    16    18   ar
    30     9    10    1
    31     4     5    1
    32     5     6    1
    33     6    19    1
    34    19    20   ar
    35    19    21   ar
    36    35    36   ar
    37    36    37   ar
    38    37    27   ar
    39    36    30   ar
    40     6     1    1
    41    10     7    1
    42    18    11   ar
    43    25    26    1
@<TRIPOS>MOLECULE
*****
 39 43 0 0 0
SMALL
GASTEIGER

@<TRIPOS>ATOM
      1 C         139.6567  142.8408  159.9878 C.3     1  UNL1        0.0080
      2 C         139.4287  141.5215  160.6644 C.3     1  UNL1        0.0177
      3 C         139.8167  141.3389  162.1017 C.3     1  UNL1        0.0721
      4 N         140.4327  142.4754  162.8626 N.3     1  UNL1       -0.2736
      5 C         140.6607  143.7946  162.1861 C.3     1  UNL1        0.0776
      6 C         140.2726  143.9773  160.7486 C.3     1  UNL1        0.0525
      7 C         140.8207  142.2928  164.2999 C.3     1  UNL1        0.0582
      8 C         140.5735  143.0516  165.5700 C.3     1  UNL1        0.0204
      9 C         141.3695  142.0345  166.3328 C.3     1  UNL1        0.0252
     10 C         141.6167  141.2756  165.0627 C.3     1  UNL1        0.0204
     11 C         141.7575  141.8518  167.7701 C.ar    1  UNL1       -0.0180
     12 C         140.7871  141.2407  168.7370 C.ar    1  UNL1        0.0255
     13 C         141.1751  141.0580  170.1745 C.ar    1  UNL1        0.1421
     14 F         140.2048  140.4469  171.1414 F       1  UNL1       -0.2041
     15 C         142.5335  141.4864  170.6449 C.ar    1  UNL1        0.0592
     16 C         143.5038  142.0976  169.6779 C.ar    1  UNL1        0.1421
     17 F         144.8622  142.5260  170.1484 F       1  UNL1       -0.2041
     18 C         143.1158  142.2802  168.2406 C.ar    1  UNL1        0.0255
     19 C         140.5006  145.2965  160.0721 C.2     1  UNL1        0.0513
     20 O         141.7408  145.5173  159.2578 O.co2   1  UNL1       -0.5491
     21 O         139.4884  146.3949  160.2098 O.co2   1  UNL1       -0.5491
     22 C         139.2687  143.0234  158.5504 C.3     1  UNL1        0.0033
     23 C         140.1010  142.4080  157.4649 C.3     1  UNL1        0.0339
     24 C         141.5684  142.1837  157.6808 C.3     1  UNL1        0.1350
     25 O         142.5299  143.3268  157.5440 O.3     1  UNL1       -0.3800
     26 H         142.0427  144.1335  157.3143 H       1  UNL1        0.2108
     27 C         143.8064  141.5366  161.5309 C.ar    1  UNL1        0.1388
     28 C         144.3121  140.1693  161.8836 C.ar    1  UNL1        0.0384
     29 C         144.0719  139.0176  160.9531 C.ar    1  UNL1        0.0222
     30 C         143.3260  139.2333  159.6697 C.ar    1  UNL1        0.0814
     31 N         143.0858  138.0816  158.7392 N.ar    1  UNL1       -0.2415
     32 C         142.3398  138.2973  157.4559 C.ar    1  UNL1        0.1281
     33 C         141.8340  139.6647  157.1030 C.ar    1  UNL1        0.1575
     34 F         141.0880  139.8803  155.8197 F       1  UNL1       -0.2028
     35 C         142.0742  140.8163  158.0336 C.ar    1  UNL1        0.0348
     36 C         142.8202  140.6006  159.3170 C.ar    1  UNL1        0.0212
     37 C         143.0604  141.7523  160.2475 C.ar    1  UNL1        0.0382
     38 C         144.8592  142.4897  163.7064 C.3     1  UNL1        0.2525
     39 O         144.0466  142.6883  162.4614 O.3     1  UNL1       -0.4714
@<TRIPOS>UNITY_ATOM_ATTR
20 1
charge -1
@<TRIPOS>BOND
     1    38    39    1
     2    39    27    1
     3    27    28   ar
     4    28    29   ar
     5    29    30   ar
     6    30    31   ar
     7    31    32   ar
     8    32    33   ar
     9    33    34    1
    10    33    35   ar
    11    35    24    1
    12    24    25    1
    13    24    23    1
    14    23    22    1
    15     1    22    1
    16     1     2    1
    17     2     3    1
    18     3     4    1
    19     4     7    1
    20     7     8    1
    21     8     9    1
    22     9    11    1
    23    11    12   ar
    24    12    13   ar
    25    13    14    1
    26    13    15   ar
    27    15    16   ar
    28    16    17    1
    29    16    18   ar
    30     9    10    1
    31     4     5    1
    32     5     6    1
    33     6    19    1
    34    19    20   ar
    35    19    21   ar
    36    35    36   ar
    37    36    37   ar
    38    37    27   ar
    39    36    30   ar
    40     6     1    1
    41    10     7    1
    42    18    11   ar
    43    25    26    1
@<TRIPOS>MOLECULE
*****
 39 43 0 0 0
SMALL
GASTEIGER

@<TRIPOS>ATOM
      1 C         141.6905  143.3900  161.7500 C.3     1  UNL1        0.0080
      2 C         142.0185  142.0327  162.2981 C.3     1  UNL1        0.0177
      3 C         142.0740  140.8470  161.3811 C.3     1  UNL1        0.0721
      4 N         141.8014  141.0184  159.9161 N.3     1  UNL1       -0.2736
      5 C         141.4734  142.3756  159.3680 C.3     1  UNL1        0.0776
      6 C         141.4180  143.5615  160.2850 C.3     1  UNL1        0.0525
      7 C         141.8569  139.8327  158.9991 C.3     1  UNL1        0.0582
      8 C         141.0973  138.5443  158.8842 C.3     1  UNL1        0.0204
      9 C         141.9353  138.1557  157.7022 C.3     1  UNL1        0.0252
     10 C         142.6948  139.4440  157.8172 C.3     1  UNL1        0.0204
     11 C         141.9907  136.9699  156.7853 C.ar    1  UNL1       -0.0180
     12 C         141.0504  136.8783  155.6202 C.ar    1  UNL1        0.0255
     13 C         141.1058  135.6925  154.7031 C.ar    1  UNL1        0.1421
     14 F         140.1655  135.6008  153.5381 F       1  UNL1       -0.2041
     15 C         142.1015  134.5984  154.9512 C.ar    1  UNL1        0.0592
     16 C         143.0419  134.6901  156.1164 C.ar    1  UNL1        0.1421
     17 F         144.0376  133.5960  156.3645 F       1  UNL1       -0.2041
     18 C         142.9864  135.8759  157.0333 C.ar    1  UNL1        0.0255
     19 C         141.0900  144.9187  159.7369 C.2     1  UNL1        0.0513
     20 O         139.7513  145.5359  160.0140 O.co2   1  UNL1       -0.5491
     21 O         142.1008  145.6586  158.9118 O.co2   1  UNL1       -0.5491
     22 C         141.6351  144.5758  162.6670 C.3     1  UNL1        0.0033
     23 C         141.2523  144.3938  164.1059 C.3     1  UNL1        0.0339
     24 C         139.8088  144.2421  164.4846 C.3     1  UNL1        0.1350
     25 O         139.0502  145.4141  165.0331 O.3     1  UNL1       -0.3800
     26 H         139.6358  146.1861  165.0778 H       1  UNL1        0.2108
     27 C         140.1688  141.0960  167.6818 C.ar    1  UNL1        0.1388
     28 C         139.4840  139.7723  167.5120 C.ar    1  UNL1        0.0384
     29 C         138.6793  139.4973  166.2764 C.ar    1  UNL1        0.0222
     30 C         138.5593  140.5460  165.2107 C.ar    1  UNL1        0.0814
     31 N         137.7545  140.2710  163.9751 N.ar    1  UNL1       -0.2415
     32 C         137.6345  141.3196  162.9093 C.ar    1  UNL1        0.1281
     33 C         138.3193  142.6434  163.0791 C.ar    1  UNL1        0.1575
     34 F         138.1993  143.6921  162.0134 F       1  UNL1       -0.2028
     35 C         139.1241  142.9184  164.3147 C.ar    1  UNL1        0.0348
     36 C         139.2440  141.8697  165.3805 C.ar    1  UNL1        0.0212
     37 C         140.0488  142.1447  166.6161 C.ar    1  UNL1        0.0382
     38 C         141.9963  142.4683  168.9176 C.3     1  UNL1        0.2525
     39 O         140.9736  141.3710  168.9174 O.3     1  UNL1       -0.4714
@<TRIPOS>UNITY_ATOM_ATTR
20 1
charge -1
@<TRIPOS>BOND
     1    38    39    1
     2    39    27    1
     3    27    28   ar
     4    28    29   ar
     5    29    30   ar
     6    30    31   ar
     7    31    32   ar
     8    32    33   ar
     9    33    34    1
    10    33    35   ar
    11    35    24    1
    12    24    25    1
    13    24    23    1
    14    23    22    1
    15     1    22    1
    16     1     2    1
    17     2     3    1
    18     3     4    1
    19     4     7    1
    20     7     8    1
    21     8     9    1
    22     9    11    1
    23    11    12   ar
    24    12    13   ar
    25    13    14    1
    26    13    15   ar
    27    15    16   ar
    28    16    17    1
    29    16    18   ar
    30     9    10    1
    31     4     5    1
    32     5     6    1
    33     6    19    1
    34    19    20   ar
    35    19    21   ar
    36    35    36   ar
    37    36    37   ar
    38    37    27   ar
    39    36    30   ar
    40     6     1    1
    41    10     7    1
    42    18    11   ar
    43    25    26    1
@<TRIPOS>MOLECULE
*****
 39 43 0 0 0
SMALL
GASTEIGER

@<TRIPOS>ATOM
      1 C         144.1864  141.2887  163.2651 C.3     1  UNL1        0.0080
      2 C         144.1960  140.6931  161.8884 C.3     1  UNL1        0.0177
      3 C         143.3978  141.3303  160.7899 C.3     1  UNL1        0.0721
      4 N         142.5899  142.5631  161.0680 N.3     1  UNL1       -0.2736
      5 C         142.5802  143.1588  162.4446 C.3     1  UNL1        0.0776
      6 C         143.3785  142.5216  163.5432 C.3     1  UNL1        0.0525
      7 C         141.7916  143.2003  159.9695 C.3     1  UNL1        0.0582
      8 C         141.9171  143.2813  158.4770 C.3     1  UNL1        0.0204
      9 C         140.6627  144.1015  158.4159 C.3     1  UNL1        0.0252
     10 C         140.5372  144.0205  159.9084 C.3     1  UNL1        0.0204
     11 C         139.8644  144.7387  157.3174 C.ar    1  UNL1       -0.0180
     12 C         139.9932  146.2095  157.0530 C.ar    1  UNL1        0.0255
     13 C         139.1949  146.8468  155.9544 C.ar    1  UNL1        0.1421
     14 F         139.3237  148.3177  155.6900 F       1  UNL1       -0.2041
     15 C         138.2679  146.0132  155.1203 C.ar    1  UNL1        0.0592
     16 C         138.1392  144.5422  155.3848 C.ar    1  UNL1        0.1421
     17 F         137.2122  143.7086  154.5507 F       1  UNL1       -0.2041
     18 C         138.9374  143.9050  156.4833 C.ar    1  UNL1        0.0255
     19 C         143.3688  143.1172  164.9198 C.2     1  UNL1        0.0513
     20 O         142.1981  142.8863  165.8286 O.co2   1  UNL1       -0.5491
     21 O         144.5298  143.9439  165.3875 O.co2   1  UNL1       -0.5491
     22 C         144.9846  140.6515  164.3636 C.3     1  UNL1        0.0033
     23 C         144.9424  139.1645  164.5557 C.3     1  UNL1        0.0339
     24 C         144.0197  138.5660  165.5758 C.3     1  UNL1        0.1350
     25 O         144.5755  137.7328  166.6925 O.3     1  UNL1       -0.3800
     26 H         145.5404  137.6813  166.6082 H       1  UNL1        0.2108
     27 C         141.8648  140.7323  168.8793 C.ar    1  UNL1        0.1388
     28 C         140.3864  140.9670  168.7827 C.ar    1  UNL1        0.0384
     29 C         139.6264  140.4795  167.5849 C.ar    1  UNL1        0.0222
     30 C         140.3446  139.7574  166.4838 C.ar    1  UNL1        0.0814
     31 N         139.5846  139.2699  165.2860 N.ar    1  UNL1       -0.2415
     32 C         140.3029  138.5478  164.1848 C.ar    1  UNL1        0.1281
     33 C         141.7813  138.3132  164.2814 C.ar    1  UNL1        0.1575
     34 F         142.4996  137.5911  163.1803 F       1  UNL1       -0.2028
     35 C         142.5414  138.8006  165.4792 C.ar    1  UNL1        0.0348
     36 C         141.8230  139.5228  166.5804 C.ar    1  UNL1        0.0212
     37 C         142.5831  140.0102  167.7782 C.ar    1  UNL1        0.0382
     38 C         142.8540  142.6891  170.2729 C.3     1  UNL1        0.2525
     39 O         142.6249  141.2198  170.0771 O.3     1  UNL1       -0.4714
@<TRIPOS>UNITY_ATOM_ATTR
20 1
charge -1
@<TRIPOS>BOND
     1    38    39    1
     2    39    27    1
     3    27    28   ar
     4    28    29   ar
     5    29    30   ar
     6    30    31   ar
     7    31    32   ar
     8    32    33   ar
     9    33    34    1
    10    33    35   ar
    11    35    24    1
    12    24    25    1
    13    24    23    1
    14    23    22    1
    15     1    22    1
    16     1     2    1
    17     2     3    1
    18     3     4    1
    19     4     7    1
    20     7     8    1
    21     8     9    1
    22     9    11    1
    23    11    12   ar
    24    12    13   ar
    25    13    14    1
    26    13    15   ar
    27    15    16   ar
    28    16    17    1
    29    16    18   ar
    30     9    10    1
    31     4     5    1
    32     5     6    1
    33     6    19    1
    34    19    20   ar
    35    19    21   ar
    36    35    36   ar
    37    36    37   ar
    38    37    27   ar
    39    36    30   ar
    40     6     1    1
    41    10     7    1
    42    18    11   ar
    43    25    26    1
@<TRIPOS>MOLECULE
*****
 39 43 0 0 0
SMALL
GASTEIGER

@<TRIPOS>ATOM
      1 C         142.1915  138.3906  159.4526 C.3     1  UNL1        0.0080
      2 C         143.1400  137.7732  160.4371 C.3     1  UNL1        0.0177
      3 C         142.9638  138.0220  161.9058 C.3     1  UNL1        0.0721
      4 N         141.8390  138.8882  162.3900 N.3     1  UNL1       -0.2736
      5 C         140.8905  139.5056  161.4057 C.3     1  UNL1        0.0776
      6 C         141.0667  139.2568  159.9369 C.3     1  UNL1        0.0525
      7 C         141.6627  139.1370  163.8587 C.3     1  UNL1        0.0582
      8 C         141.6765  140.3524  164.7377 C.3     1  UNL1        0.0204
      9 C         141.4134  139.4890  165.9358 C.3     1  UNL1        0.0252
     10 C         141.3996  138.2736  165.0567 C.3     1  UNL1        0.0204
     11 C         141.2372  139.7378  167.4044 C.ar    1  UNL1       -0.0180
     12 C         142.4227  139.6837  168.3218 C.ar    1  UNL1        0.0255
     13 C         142.2465  139.9326  169.7906 C.ar    1  UNL1        0.1421
     14 F         143.4319  139.8785  170.7079 F       1  UNL1       -0.2041
     15 C         140.8847  140.2354  170.3418 C.ar    1  UNL1        0.0592
     16 C         139.6992  140.2894  169.4244 C.ar    1  UNL1        0.1421
     17 F         138.3374  140.5923  169.9756 F       1  UNL1       -0.2041
     18 C         139.8754  140.0406  167.9557 C.ar    1  UNL1        0.0255
     19 C         140.1182  139.8743  158.9525 C.2     1  UNL1        0.0513
     20 O         138.8437  139.1686  158.5952 O.co2   1  UNL1       -0.5491
     21 O         140.4441  141.1973  158.3255 O.co2   1  UNL1       -0.5491
     22 C         142.3678  138.1418  157.9840 C.3     1  UNL1        0.0033
     23 C         142.8915  136.8205  157.5048 C.3     1  UNL1        0.0339
     24 C         143.4462  136.6923  156.1169 C.3     1  UNL1        0.1350
     25 O         144.7439  137.3564  155.7636 O.3     1  UNL1       -0.3800
     26 H         145.0900  137.8236  156.5401 H       1  UNL1        0.2108
     27 C         144.2134  132.2794  155.6834 C.ar    1  UNL1        0.1388
     28 C         143.4704  131.4871  154.6490 C.ar    1  UNL1        0.0384
     29 C         142.4716  132.1657  153.7591 C.ar    1  UNL1        0.0222
     30 C         142.2159  133.6366  153.9036 C.ar    1  UNL1        0.0814
     31 N         141.2171  134.3152  153.0137 N.ar    1  UNL1       -0.2415
     32 C         140.9613  135.7861  153.1582 C.ar    1  UNL1        0.1281
     33 C         141.7044  136.5785  154.1926 C.ar    1  UNL1        0.1575
     34 F         141.4486  138.0494  154.3371 F       1  UNL1       -0.2028
     35 C         142.7032  135.8999  155.0825 C.ar    1  UNL1        0.0348
     36 C         142.9589  134.4289  154.9380 C.ar    1  UNL1        0.0212
     37 C         143.9577  133.7503  155.8279 C.ar    1  UNL1        0.0382
     38 C         145.4094  132.0794  157.9811 C.3     1  UNL1        0.2525
     39 O         145.2122  131.6008  156.5733 O.3     1  UNL1       -0.4714
@<TRIPOS>UNITY_ATOM_ATTR
20 1
charge -1
@<TRIPOS>BOND
     1    38    39    1
     2    39    27    1
     3    27    28   ar
     4    28    29   ar
     5    29    30   ar
     6    30    31   ar
     7    31    32   ar
     8    32    33   ar
     9    33    34    1
    10    33    35   ar
    11    35    24    1
    12    24    25    1
    13    24    23    1
    14    23    22    1
    15     1    22    1
    16     1     2    1
    17     2     3    1
    18     3     4    1
    19     4     7    1
    20     7     8    1
    21     8     9    1
    22     9    11    1
    23    11    12   ar
    24    12    13   ar
    25    13    14    1
    26    13    15   ar
    27    15    16   ar
    28    16    17    1
    29    16    18   ar
    30     9    10    1
    31     4     5    1
    32     5     6    1
    33     6    19    1
    34    19    20   ar
    35    19    21   ar
    36    35    36   ar
    37    36    37   ar
    38    37    27   ar
    39    36    30   ar
    40     6     1    1
    41    10     7    1
    42    18    11   ar
    43    25    26    1
