@<TRIPOS>MOLECULE
*****
 28 31 0 0 0
SMALL
GASTEIGER

@<TRIPOS>ATOM
      1 C         141.4199  143.2601  169.7398 C.3     1  UNL1        0.0028
      2 C         140.8085  142.5003  168.6001 C.3     1  UNL1        0.0315
      3 C         140.7442  142.9538  167.1718 C.3     1  UNL1        0.0032
      4 C         140.0501  141.8874  166.3776 C.3     1  UNL1        0.0067
      5 C         139.7030  141.7857  164.9218 C.3     1  UNL1        0.0190
      6 C         140.0677  142.8985  163.9844 C.3     1  UNL1        0.0084
      7 C         139.7206  142.7968  162.5286 C.3     1  UNL1        0.0230
      8 C         139.0088  141.5824  162.0103 C.2     1  UNL1       -0.0345
      9 C         138.6617  141.4808  160.5546 C.2     1  UNL1        0.0341
     10 C         137.9499  140.2664  160.0364 C.2     1  UNL1        0.1948
     11 O         137.6028  140.1648  158.5806 O.2     1  UNL1       -0.2866
     12 C         137.5852  139.1537  160.9738 C.2     1  UNL1        0.0380
     13 C         137.9322  139.2554  162.4295 C.2     1  UNL1       -0.0160
     14 C         138.6441  140.4697  162.9478 C.3     1  UNL1        0.0486
     15 C         138.2793  139.3570  163.8853 C.3     1  UNL1        0.0125
     16 C         138.9912  140.5714  164.4036 C.2     1  UNL1       -0.0422
     17 C         138.6264  139.4587  165.3410 C.2     1  UNL1       -0.0339
     18 C         138.9735  139.5603  166.7968 C.3     1  UNL1        0.0281
     19 C         139.6854  140.7747  167.3151 C.3     1  UNL1        0.0333
     20 C         139.3100  139.6488  168.2324 C.3     1  UNL1        0.0031
     21 C         140.1541  141.1535  168.6886 C.3     1  UNL1        0.1415
     22 O         139.6266  139.8672  169.2520 O.3     1  UNL1       -0.3797
     23 H         139.2214  139.3453  168.5418 H       1  UNL1        0.2108
     24 C         140.5012  141.2552  170.1444 C.2     1  UNL1        0.2038
     25 O         139.5737  141.9602  171.0891 O.2     1  UNL1       -0.2910
     26 C         141.7759  140.6518  170.6554 C.3     1  UNL1        0.2044
     27 O         142.0854  140.6838  172.1227 O.3     1  UNL1       -0.3749
     28 H         142.2158  141.6024  172.4057 H       1  UNL1        0.2110
@<TRIPOS>BOND
     1     2     1    1
     2     2     3    1
     3     4     3    1
     4     4     5    1
     5     5     6    1
     6     6     7    1
     7     7     8    1
     8     8     9    2
     9     9    10    1
    10    10    11    2
    11    10    12    1
    12    12    13    2
    13    13    14    1
    14    14    15    1
    15    14    16    1
    16    16    17    2
    17    17    18    1
    18    18    19    1
    19    19    20    1
    20    19    21    1
    21    21    22    1
    22    21    24    1
    23    24    25    2
    24    24    26    1
    25    26    27    1
    26    21     2    1
    27    19     4    1
    28    16     5    1
    29    14     8    1
    30    22    23    1
    31    27    28    1
@<TRIPOS>MOLECULE
*****
 28 31 0 0 0
SMALL
GASTEIGER

@<TRIPOS>ATOM
      1 C         138.4083  140.4073  169.9825 C.3     1  UNL1        0.0028
      2 C         139.3821  140.1099  168.8811 C.3     1  UNL1        0.0315
      3 C         139.0329  139.7924  167.4573 C.3     1  UNL1        0.0032
      4 C         140.3110  139.5641  166.7063 C.3     1  UNL1        0.0067
      5 C         140.5848  139.2183  165.2726 C.3     1  UNL1        0.0190
      6 C         139.4455  139.0419  164.3129 C.3     1  UNL1        0.0084
      7 C         139.7191  138.6961  162.8792 C.3     1  UNL1        0.0230
      8 C         141.1322  138.5268  162.4051 C.2     1  UNL1       -0.0345
      9 C         141.4059  138.1811  160.9714 C.2     1  UNL1        0.0341
     10 C         142.8188  138.0117  160.4974 C.2     1  UNL1        0.1948
     11 O         143.0926  137.6660  159.0636 O.2     1  UNL1       -0.2866
     12 C         143.9581  138.1882  161.4570 C.2     1  UNL1        0.0380
     13 C         143.6844  138.5339  162.8907 C.2     1  UNL1       -0.0160
     14 C         142.2715  138.7032  163.3647 C.3     1  UNL1        0.0486
     15 C         143.4108  138.8797  164.3244 C.3     1  UNL1        0.0125
     16 C         141.9977  139.0490  164.7985 C.2     1  UNL1       -0.0422
     17 C         143.1370  139.2254  165.7581 C.2     1  UNL1       -0.0339
     18 C         142.8633  139.5712  167.1918 C.3     1  UNL1        0.0281
     19 C         141.4503  139.7405  167.6659 C.3     1  UNL1        0.0333
     20 C         142.6065  139.9117  168.6061 C.3     1  UNL1        0.0031
     21 C         140.8762  140.0778  169.0100 C.3     1  UNL1        0.1415
     22 O         142.2505  140.1596  169.6057 O.3     1  UNL1       -0.3797
     23 H         142.9114  139.9724  168.9208 H       1  UNL1        0.2108
     24 C         140.6025  140.4236  170.4437 C.2     1  UNL1        0.2038
     25 O         140.0331  139.3895  171.3691 O.2     1  UNL1       -0.2910
     26 C         140.8982  141.8035  170.9520 C.3     1  UNL1        0.2044
     27 O         142.0156  142.0195  171.9291 O.3     1  UNL1       -0.3749
     28 H         141.8019  141.5802  172.7670 H       1  UNL1        0.2110
@<TRIPOS>BOND
     1     2     1    1
     2     2     3    1
     3     4     3    1
     4     4     5    1
     5     5     6    1
     6     6     7    1
     7     7     8    1
     8     8     9    2
     9     9    10    1
    10    10    11    2
    11    10    12    1
    12    12    13    2
    13    13    14    1
    14    14    15    1
    15    14    16    1
    16    16    17    2
    17    17    18    1
    18    18    19    1
    19    19    20    1
    20    19    21    1
    21    21    22    1
    22    21    24    1
    23    24    25    2
    24    24    26    1
    25    26    27    1
    26    21     2    1
    27    19     4    1
    28    16     5    1
    29    14     8    1
    30    22    23    1
    31    27    28    1
@<TRIPOS>MOLECULE
*****
 28 31 0 0 0
SMALL
GASTEIGER

@<TRIPOS>ATOM
      1 C         142.7154  143.2072  170.4915 C.3     1  UNL1        0.0028
      2 C         142.3396  142.3403  169.3264 C.3     1  UNL1        0.0315
      3 C         143.1526  142.1332  168.0830 C.3     1  UNL1        0.0032
      4 C         142.4003  141.1933  167.1884 C.3     1  UNL1        0.0067
      5 C         142.7139  140.6295  165.8342 C.3     1  UNL1        0.0190
      6 C         143.9920  141.0034  165.1438 C.3     1  UNL1        0.0084
      7 C         144.3056  140.4396  163.7896 C.3     1  UNL1        0.0230
      8 C         143.3411  139.5019  163.1258 C.2     1  UNL1       -0.0345
      9 C         143.6547  138.9382  161.7717 C.2     1  UNL1        0.0341
     10 C         142.6902  138.0005  161.1080 C.2     1  UNL1        0.1948
     11 O         143.0038  137.4367  159.7537 O.2     1  UNL1       -0.2866
     12 C         141.4121  137.6267  161.7984 C.2     1  UNL1        0.0380
     13 C         141.0985  138.1904  163.1525 C.2     1  UNL1       -0.0160
     14 C         142.0630  139.1281  163.8163 C.3     1  UNL1        0.0486
     15 C         140.7849  138.7542  164.5067 C.3     1  UNL1        0.0125
     16 C         141.7494  139.6919  165.1705 C.2     1  UNL1       -0.0422
     17 C         140.4713  139.3180  165.8609 C.2     1  UNL1       -0.0339
     18 C         140.1577  139.8818  167.2151 C.3     1  UNL1        0.0281
     19 C         141.1222  140.8195  167.8789 C.3     1  UNL1        0.0333
     20 C         139.8377  140.4305  168.5488 C.3     1  UNL1        0.0031
     21 C         141.0847  141.5283  169.2002 C.3     1  UNL1        0.1415
     22 O         139.7526  140.9174  169.5199 O.3     1  UNL1       -0.3797
     23 H         139.4741  140.3469  168.7865 H       1  UNL1        0.2108
     24 C         140.7711  142.0921  170.5544 C.2     1  UNL1        0.2038
     25 O         141.3059  141.4249  171.7868 O.2     1  UNL1       -0.2910
     26 C         139.9228  143.3232  170.6762 C.3     1  UNL1        0.2044
     27 O         138.6552  143.2843  171.4772 O.3     1  UNL1       -0.3749
     28 H         138.0194  142.6908  171.0478 H       1  UNL1        0.2110
@<TRIPOS>BOND
     1     2     1    1
     2     2     3    1
     3     4     3    1
     4     4     5    1
     5     5     6    1
     6     6     7    1
     7     7     8    1
     8     8     9    2
     9     9    10    1
    10    10    11    2
    11    10    12    1
    12    12    13    2
    13    13    14    1
    14    14    15    1
    15    14    16    1
    16    16    17    2
    17    17    18    1
    18    18    19    1
    19    19    20    1
    20    19    21    1
    21    21    22    1
    22    21    24    1
    23    24    25    2
    24    24    26    1
    25    26    27    1
    26    21     2    1
    27    19     4    1
    28    16     5    1
    29    14     8    1
    30    22    23    1
    31    27    28    1
@<TRIPOS>MOLECULE
*****
 28 31 0 0 0
SMALL
GASTEIGER

@<TRIPOS>ATOM
      1 C         143.9500  142.1051  169.9063 C.3     1  UNL1        0.0028
      2 C         142.9717  141.8812  168.7914 C.3     1  UNL1        0.0315
      3 C         142.9828  142.5673  167.4576 C.3     1  UNL1        0.0032
      4 C         141.8286  142.0421  166.6565 C.3     1  UNL1        0.0067
      5 C         141.3437  142.3535  165.2716 C.3     1  UNL1        0.0190
      6 C         142.0682  143.3643  164.4329 C.3     1  UNL1        0.0084
      7 C         141.5833  143.6758  163.0481 C.3     1  UNL1        0.0230
      8 C         140.3738  142.9765  162.5019 C.2     1  UNL1       -0.0345
      9 C         139.8889  143.2880  161.1171 C.2     1  UNL1        0.0341
     10 C         138.6795  142.5888  160.5710 C.2     1  UNL1        0.1948
     11 O         138.1945  142.9003  159.1861 O.2     1  UNL1       -0.2866
     12 C         137.9550  141.5780  161.4097 C.2     1  UNL1        0.0380
     13 C         138.4399  141.2665  162.7945 C.2     1  UNL1       -0.0160
     14 C         139.6493  141.9658  163.3406 C.3     1  UNL1        0.0486
     15 C         138.9248  140.9550  164.1793 C.3     1  UNL1        0.0125
     16 C         140.1343  141.6543  164.7255 C.2     1  UNL1       -0.0422
     17 C         139.4098  140.6435  165.5642 C.2     1  UNL1       -0.0339
     18 C         139.8947  140.3320  166.9490 C.3     1  UNL1        0.0281
     19 C         141.1041  141.0313  167.4952 C.3     1  UNL1        0.0333
     20 C         140.3626  140.0167  168.3143 C.3     1  UNL1        0.0031
     21 C         141.8106  140.9319  168.8146 C.3     1  UNL1        0.1415
     22 O         140.8317  139.8998  169.2908 O.3     1  UNL1       -0.3797
     23 H         140.1795  139.7269  168.5939 H       1  UNL1        0.2108
     24 C         142.2955  140.6204  170.1995 C.2     1  UNL1        0.2038
     25 O         143.3795  139.6038  170.4037 O.2     1  UNL1       -0.2910
     26 C         141.6965  141.3255  171.3802 C.3     1  UNL1        0.2044
     27 O         140.6126  140.6637  172.1783 O.3     1  UNL1       -0.3749
     28 H         139.8197  140.5660  171.6282 H       1  UNL1        0.2110
@<TRIPOS>BOND
     1     2     1    1
     2     2     3    1
     3     4     3    1
     4     4     5    1
     5     5     6    1
     6     6     7    1
     7     7     8    1
     8     8     9    2
     9     9    10    1
    10    10    11    2
    11    10    12    1
    12    12    13    2
    13    13    14    1
    14    14    15    1
    15    14    16    1
    16    16    17    2
    17    17    18    1
    18    18    19    1
    19    19    20    1
    20    19    21    1
    21    21    22    1
    22    21    24    1
    23    24    25    2
    24    24    26    1
    25    26    27    1
    26    21     2    1
    27    19     4    1
    28    16     5    1
    29    14     8    1
    30    22    23    1
    31    27    28    1
@<TRIPOS>MOLECULE
*****
 28 31 0 0 0
SMALL
GASTEIGER

@<TRIPOS>ATOM
      1 C         138.8349  141.4081  160.0979 C.3     1  UNL1        0.0028
      2 C         138.9470  141.0475  161.5496 C.3     1  UNL1        0.0315
      3 C         139.3406  141.9752  162.6607 C.3     1  UNL1        0.0032
      4 C         139.3220  141.1971  163.9428 C.3     1  UNL1        0.0067
      5 C         139.6216  141.5891  165.3593 C.3     1  UNL1        0.0190
      6 C         140.0267  142.9978  165.6779 C.3     1  UNL1        0.0084
      7 C         140.3263  143.3899  167.0944 C.3     1  UNL1        0.0230
      8 C         140.2209  142.3733  168.1924 C.2     1  UNL1       -0.0345
      9 C         140.5205  142.7654  169.6089 C.2     1  UNL1        0.0341
     10 C         140.4150  141.7488  170.7067 C.2     1  UNL1        0.1948
     11 O         140.7146  142.1409  172.1233 O.2     1  UNL1       -0.2866
     12 C         140.0099  140.3401  170.3881 C.2     1  UNL1        0.0380
     13 C         139.7103  139.9480  168.9717 C.2     1  UNL1       -0.0160
     14 C         139.8158  140.9646  167.8738 C.3     1  UNL1        0.0486
     15 C         139.4107  139.5559  167.5552 C.3     1  UNL1        0.0125
     16 C         139.5162  140.5725  166.4572 C.2     1  UNL1       -0.0422
     17 C         139.1111  139.1639  166.1386 C.2     1  UNL1       -0.0339
     18 C         138.8115  138.7718  164.7221 C.3     1  UNL1        0.0281
     19 C         138.9169  139.7884  163.6242 C.3     1  UNL1        0.0333
     20 C         138.5139  138.3735  163.3311 C.3     1  UNL1        0.0031
     21 C         138.6851  139.6960  162.1452 C.3     1  UNL1        0.1415
     22 O         138.3305  138.2434  162.2649 O.3     1  UNL1       -0.3797
     23 H         138.3916  137.9711  163.1939 H       1  UNL1        0.2108
     24 C         138.3855  139.3039  160.7286 C.2     1  UNL1        0.2038
     25 O         137.0066  139.4999  160.1718 O.2     1  UNL1       -0.2910
     26 C         139.4649  138.7158  159.8689 C.3     1  UNL1        0.2044
     27 O         140.7547  138.2652  160.4879 O.3     1  UNL1       -0.3749
     28 H         141.2295  139.0335  160.8416 H       1  UNL1        0.2110
@<TRIPOS>BOND
     1     2     1    1
     2     2     3    1
     3     4     3    1
     4     4     5    1
     5     5     6    1
     6     6     7    1
     7     7     8    1
     8     8     9    2
     9     9    10    1
    10    10    11    2
    11    10    12    1
    12    12    13    2
    13    13    14    1
    14    14    15    1
    15    14    16    1
    16    16    17    2
    17    17    18    1
    18    18    19    1
    19    19    20    1
    20    19    21    1
    21    21    22    1
    22    21    24    1
    23    24    25    2
    24    24    26    1
    25    26    27    1
    26    21     2    1
    27    19     4    1
    28    16     5    1
    29    14     8    1
    30    22    23    1
    31    27    28    1
@<TRIPOS>MOLECULE
*****
 28 31 0 0 0
SMALL
GASTEIGER

@<TRIPOS>ATOM
      1 C         140.3363  143.4143  169.6704 C.3     1  UNL1        0.0028
      2 C         140.9269  142.5216  168.6195 C.3     1  UNL1        0.0315
      3 C         140.8294  142.7217  167.1362 C.3     1  UNL1        0.0032
      4 C         141.5610  141.5959  166.4675 C.3     1  UNL1        0.0067
      5 C         141.7977  141.2708  165.0223 C.3     1  UNL1        0.0190
      6 C         141.2480  142.1668  163.9523 C.3     1  UNL1        0.0084
      7 C         141.4847  141.8417  162.5072 C.3     1  UNL1        0.0230
      8 C         142.2711  140.6206  162.1321 C.2     1  UNL1       -0.0345
      9 C         142.5078  140.2955  160.6871 C.2     1  UNL1        0.0341
     10 C         143.2941  139.0745  160.3121 C.2     1  UNL1        0.1948
     11 O         143.5308  138.7493  158.8670 O.2     1  UNL1       -0.2866
     12 C         143.8438  138.1785  161.3822 C.2     1  UNL1        0.0380
     13 C         143.6071  138.5036  162.8273 C.2     1  UNL1       -0.0160
     14 C         142.8208  139.7246  163.2022 C.3     1  UNL1        0.0486
     15 C         143.3705  138.8287  164.2723 C.3     1  UNL1        0.0125
     16 C         142.5841  140.0498  164.6474 C.2     1  UNL1       -0.0422
     17 C         143.1338  139.1538  165.7175 C.2     1  UNL1       -0.0339
     18 C         142.8971  139.4789  167.1625 C.3     1  UNL1        0.0281
     19 C         142.1107  140.7000  167.5376 C.3     1  UNL1        0.0333
     20 C         142.6707  139.7885  168.5891 C.3     1  UNL1        0.0031
     21 C         141.7188  141.2721  168.8676 C.3     1  UNL1        0.1415
     22 O         142.4172  140.1543  169.5837 O.3     1  UNL1       -0.3797
     23 H         142.8141  139.5525  168.9347 H       1  UNL1        0.2108
     24 C         141.4821  141.5972  170.3127 C.2     1  UNL1        0.2038
     25 O         142.3754  142.5745  171.0176 O.2     1  UNL1       -0.2910
     26 C         140.3521  140.9450  171.0528 C.3     1  UNL1        0.2044
     27 O         140.1567  139.4603  170.9663 O.3     1  UNL1       -0.3749
     28 H         139.9171  139.2182  170.0581 H       1  UNL1        0.2110
@<TRIPOS>BOND
     1     2     1    1
     2     2     3    1
     3     4     3    1
     4     4     5    1
     5     5     6    1
     6     6     7    1
     7     7     8    1
     8     8     9    2
     9     9    10    1
    10    10    11    2
    11    10    12    1
    12    12    13    2
    13    13    14    1
    14    14    15    1
    15    14    16    1
    16    16    17    2
    17    17    18    1
    18    18    19    1
    19    19    20    1
    20    19    21    1
    21    21    22    1
    22    21    24    1
    23    24    25    2
    24    24    26    1
    25    26    27    1
    26    21     2    1
    27    19     4    1
    28    16     5    1
    29    14     8    1
    30    22    23    1
    31    27    28    1
@<TRIPOS>MOLECULE
*****
 28 31 0 0 0
SMALL
GASTEIGER

@<TRIPOS>ATOM
      1 C         142.2597  140.1638  170.8869 C.3     1  UNL1        0.0028
      2 C         141.5950  140.5654  169.6036 C.3     1  UNL1        0.0315
      3 C         141.2415  139.6495  168.4695 C.3     1  UNL1        0.0032
      4 C         140.5952  140.4714  167.3941 C.3     1  UNL1        0.0067
      5 C         140.0425  140.1072  166.0480 C.3     1  UNL1        0.0190
      6 C         140.0884  138.6833  165.5786 C.3     1  UNL1        0.0084
      7 C         139.5357  138.3191  164.2325 C.3     1  UNL1        0.0230
      8 C         138.9371  139.3789  163.3558 C.2     1  UNL1       -0.0345
      9 C         138.3844  139.0147  162.0098 C.2     1  UNL1        0.0341
     10 C         137.7859  140.0744  161.1331 C.2     1  UNL1        0.1948
     11 O         137.2332  139.7103  159.7870 O.2     1  UNL1       -0.2866
     12 C         137.7399  141.4984  161.6025 C.2     1  UNL1        0.0380
     13 C         138.2926  141.8625  162.9485 C.2     1  UNL1       -0.0160
     14 C         138.8912  140.8028  163.8252 C.3     1  UNL1        0.0486
     15 C         138.8453  142.2267  164.2945 C.3     1  UNL1        0.0125
     16 C         139.4439  141.1670  165.1713 C.2     1  UNL1       -0.0422
     17 C         139.3980  142.5909  165.6407 C.2     1  UNL1       -0.0339
     18 C         139.9506  142.9551  166.9867 C.3     1  UNL1        0.0281
     19 C         140.5493  141.8953  167.8635 C.3     1  UNL1        0.0333
     20 C         140.4917  143.3261  168.3103 C.3     1  UNL1        0.0031
     21 C         141.1672  141.9534  169.2289 C.3     1  UNL1        0.1415
     22 O         140.9290  143.4325  169.3027 O.3     1  UNL1       -0.3797
     23 H         140.4983  143.7317  168.4867 H       1  UNL1        0.2108
     24 C         141.7199  142.3175  170.5751 C.2     1  UNL1        0.2038
     25 O         140.8596  142.1936  171.7976 O.2     1  UNL1       -0.2910
     26 C         143.1329  142.8056  170.6986 C.3     1  UNL1        0.2044
     27 O         143.4112  144.1547  171.2922 O.3     1  UNL1       -0.3749
     28 H         143.0516  144.8438  170.7118 H       1  UNL1        0.2110
@<TRIPOS>BOND
     1     2     1    1
     2     2     3    1
     3     4     3    1
     4     4     5    1
     5     5     6    1
     6     6     7    1
     7     7     8    1
     8     8     9    2
     9     9    10    1
    10    10    11    2
    11    10    12    1
    12    12    13    2
    13    13    14    1
    14    14    15    1
    15    14    16    1
    16    16    17    2
    17    17    18    1
    18    18    19    1
    19    19    20    1
    20    19    21    1
    21    21    22    1
    22    21    24    1
    23    24    25    2
    24    24    26    1
    25    26    27    1
    26    21     2    1
    27    19     4    1
    28    16     5    1
    29    14     8    1
    30    22    23    1
    31    27    28    1
@<TRIPOS>MOLECULE
*****
 28 31 0 0 0
SMALL
GASTEIGER

@<TRIPOS>ATOM
      1 C         140.9466  138.4146  159.8941 C.3     1  UNL1        0.0028
      2 C         141.3450  138.6620  161.3189 C.3     1  UNL1        0.0315
      3 C         140.4108  138.9247  162.4627 C.3     1  UNL1        0.0032
      4 C         141.2359  139.1152  163.7008 C.3     1  UNL1        0.0067
      5 C         140.8588  139.4019  165.1240 C.3     1  UNL1        0.0190
      6 C         139.4147  139.5469  165.5026 C.3     1  UNL1        0.0084
      7 C         139.0376  139.8336  166.9258 C.3     1  UNL1        0.0230
      8 C         140.1046  139.9753  167.9705 C.2     1  UNL1       -0.0345
      9 C         139.7275  140.2621  169.3937 C.2     1  UNL1        0.0341
     10 C         140.7946  140.4038  170.4383 C.2     1  UNL1        0.1948
     11 O         140.4175  140.6905  171.8616 O.2     1  UNL1       -0.2866
     12 C         142.2388  140.2588  170.0597 C.2     1  UNL1        0.0380
     13 C         142.6159  139.9720  168.6365 C.2     1  UNL1       -0.0160
     14 C         141.5488  139.8303  167.5919 C.3     1  UNL1        0.0486
     15 C         142.9930  139.6853  167.2133 C.3     1  UNL1        0.0125
     16 C         141.9259  139.5436  166.1686 C.2     1  UNL1       -0.0422
     17 C         143.3701  139.3986  165.7901 C.2     1  UNL1       -0.0339
     18 C         143.7472  139.1119  164.3669 C.3     1  UNL1        0.0281
     19 C         142.6801  138.9701  163.3222 C.3     1  UNL1        0.0333
     20 C         144.1311  138.8295  162.9686 C.3     1  UNL1        0.0031
     21 C         142.7475  138.6901  161.8502 C.3     1  UNL1        0.1415
     22 O         144.2451  138.6237  161.9046 O.3     1  UNL1       -0.3797
     23 H         144.5427  138.7795  162.8146 H       1  UNL1        0.2108
     24 C         143.1246  138.4034  160.4269 C.2     1  UNL1        0.2038
     25 O         143.1973  136.9861  159.9412 O.2     1  UNL1       -0.2910
     26 C         143.4290  139.5340  159.4893 C.3     1  UNL1        0.2044
     27 O         143.9360  140.8389  160.0277 O.3     1  UNL1       -0.3749
     28 H         143.2460  141.2563  160.5667 H       1  UNL1        0.2110
@<TRIPOS>BOND
     1     2     1    1
     2     2     3    1
     3     4     3    1
     4     4     5    1
     5     5     6    1
     6     6     7    1
     7     7     8    1
     8     8     9    2
     9     9    10    1
    10    10    11    2
    11    10    12    1
    12    12    13    2
    13    13    14    1
    14    14    15    1
    15    14    16    1
    16    16    17    2
    17    17    18    1
    18    18    19    1
    19    19    20    1
    20    19    21    1
    21    21    22    1
    22    21    24    1
    23    24    25    2
    24    24    26    1
    25    26    27    1
    26    21     2    1
    27    19     4    1
    28    16     5    1
    29    14     8    1
    30    22    23    1
    31    27    28    1
@<TRIPOS>MOLECULE
*****
 28 31 0 0 0
SMALL
GASTEIGER

@<TRIPOS>ATOM
      1 C         140.5810  139.8835  170.5289 C.3     1  UNL1        0.0028
      2 C         140.7145  140.4559  169.1489 C.3     1  UNL1        0.0315
      3 C         139.7087  140.3345  168.0428 C.3     1  UNL1        0.0032
      4 C         140.2499  141.0538  166.8431 C.3     1  UNL1        0.0067
      5 C         139.6954  141.2666  165.4656 C.3     1  UNL1        0.0190
      6 C         138.3550  140.7005  165.1011 C.3     1  UNL1        0.0084
      7 C         137.8005  140.9133  163.7237 C.3     1  UNL1        0.0230
      8 C         138.5864  141.6921  162.7108 C.2     1  UNL1       -0.0345
      9 C         138.0318  141.9048  161.3334 C.2     1  UNL1        0.0341
     10 C         138.8177  142.6836  160.3206 C.2     1  UNL1        0.1948
     11 O         138.2632  142.8964  158.9431 O.2     1  UNL1       -0.2866
     12 C         140.1581  143.2497  160.6852 C.2     1  UNL1        0.0380
     13 C         140.7126  143.0369  162.0625 C.2     1  UNL1       -0.0160
     14 C         139.9268  142.2582  163.0753 C.3     1  UNL1        0.0486
     15 C         141.2672  142.8242  163.4399 C.3     1  UNL1        0.0125
     16 C         140.4813  142.0454  164.4528 C.2     1  UNL1       -0.0422
     17 C         141.8217  142.6114  164.8174 C.2     1  UNL1       -0.0339
     18 C         142.3762  142.3987  166.1947 C.3     1  UNL1        0.0281
     19 C         141.5903  141.6199  167.2076 C.3     1  UNL1        0.0333
     20 C         142.9329  142.1959  167.5480 C.3     1  UNL1        0.0031
     21 C         141.8775  141.2504  168.6327 C.3     1  UNL1        0.1415
     22 O         143.1984  141.9590  168.5779 O.3     1  UNL1       -0.3797
     23 H         143.3221  142.3447  167.6965 H       1  UNL1        0.2108
     24 C         142.4320  141.0376  170.0101 C.2     1  UNL1        0.2038
     25 O         143.2451  139.8135  170.3105 O.2     1  UNL1       -0.2910
     26 C         142.1733  142.0490  171.0872 C.3     1  UNL1        0.2044
     27 O         142.0034  143.4963  170.7318 O.3     1  UNL1       -0.3749
     28 H         142.8384  143.8432  170.3806 H       1  UNL1        0.2110
@<TRIPOS>BOND
     1     2     1    1
     2     2     3    1
     3     4     3    1
     4     4     5    1
     5     5     6    1
     6     6     7    1
     7     7     8    1
     8     8     9    2
     9     9    10    1
    10    10    11    2
    11    10    12    1
    12    12    13    2
    13    13    14    1
    14    14    15    1
    15    14    16    1
    16    16    17    2
    17    17    18    1
    18    18    19    1
    19    19    20    1
    20    19    21    1
    21    21    22    1
    22    21    24    1
    23    24    25    2
    24    24    26    1
    25    26    27    1
    26    21     2    1
    27    19     4    1
    28    16     5    1
    29    14     8    1
    30    22    23    1
    31    27    28    1
