@<TRIPOS>MOLECULE
*****
 27 30 0 0 0
SMALL
GASTEIGER

@<TRIPOS>ATOM
      1 C         144.5552  141.3296  161.4150 C.3     1  UNL1        0.1205
      2 N         143.4040  141.9752  162.1276 N.am    1  UNL1       -0.2494
      3 C         142.7310  143.0971  161.3938 C.2     1  UNL1        0.2558
      4 O         143.2982  143.4250  160.0445 O.2     1  UNL1       -0.2695
      5 C         141.5657  143.9345  161.8309 C.ar    1  UNL1        0.0884
      6 C         141.2038  144.9545  160.7924 C.ar    1  UNL1        0.0076
      7 C         140.0618  145.8968  161.0328 C.ar    1  UNL1        0.0003
      8 C         139.2817  145.8191  162.3116 C.ar    1  UNL1        0.0031
      9 C         139.6437  144.7991  163.3501 C.ar    1  UNL1        0.0376
     10 C         140.7857  143.8568  163.1097 C.ar    1  UNL1        0.1497
     11 O         140.9783  142.9225  164.2673 O.3     1  UNL1       -0.4519
     12 C         141.9984  141.8352  164.4321 C.ar    1  UNL1        0.1631
     13 C         141.8430  141.1327  165.7483 C.ar    1  UNL1        0.0728
     14 C         142.7672  140.0087  166.1122 C.ar    1  UNL1        0.1316
     15 N         143.8467  139.5872  165.1599 N.ar    1  UNL1       -0.2279
     16 C         144.0021  140.2896  163.8437 C.ar    1  UNL1        0.1182
     17 C         143.0779  141.4136  163.4797 C.ar    1  UNL1        0.1084
     18 N         142.6118  139.3063  167.4284 N.pl3   1  UNL1       -0.3196
     19 H         142.8814  138.3637  167.5182 H       1  UNL1        0.1481
     20 C         142.0457  140.0400  168.6078 C.3     1  UNL1        0.0705
     21 C         142.9375  140.8967  169.4568 C.3     1  UNL1        0.0220
     22 C         142.3713  141.6304  170.6363 C.3     1  UNL1        0.0309
     23 C         140.9133  141.5074  170.9667 C.3     1  UNL1        0.1106
     24 O         140.3472  142.2411  172.1463 O.3     1  UNL1       -0.3845
     25 C         140.0215  140.6507  170.1177 C.3     1  UNL1        0.0309
     26 C         140.5877  139.9171  168.9383 C.3     1  UNL1        0.0220
     27 H         141.0523  142.7441  172.5830 H       1  UNL1        0.2103
@<TRIPOS>BOND
     1     1     2    1
     2     2     3   am
     3     3     4    2
     4     3     5    1
     5     5     6   ar
     6     6     7   ar
     7     7     8   ar
     8     8     9   ar
     9     9    10   ar
    10    10    11    1
    11    11    12    1
    12    12    13   ar
    13    13    14   ar
    14    14    18    1
    15    20    18    1
    16    20    21    1
    17    21    22    1
    18    22    23    1
    19    23    24    1
    20    23    25    1
    21    25    26    1
    22    14    15   ar
    23    15    16   ar
    24    16    17   ar
    25    17     2    1
    26    10     5   ar
    27    17    12   ar
    28    26    20    1
    29    18    19    1
    30    24    27    1
@<TRIPOS>MOLECULE
*****
 27 30 0 0 0
SMALL
GASTEIGER

@<TRIPOS>ATOM
      1 C         138.0706  138.5404  162.0844 C.3     1  UNL1        0.1205
      2 N         138.6699  139.8552  162.4865 N.am    1  UNL1       -0.2494
      3 C         138.8909  140.8372  161.3743 C.2     1  UNL1        0.2558
      4 O         138.4833  140.3743  160.0070 O.2     1  UNL1       -0.2695
      5 C         139.4655  142.2208  161.4486 C.ar    1  UNL1        0.0884
      6 C         139.5120  142.8682  160.0963 C.ar    1  UNL1        0.0076
      7 C         140.0540  144.2590  159.9489 C.ar    1  UNL1        0.0003
      8 C         140.5496  145.0024  161.1538 C.ar    1  UNL1        0.0031
      9 C         140.5032  144.3550  162.5060 C.ar    1  UNL1        0.0376
     10 C         139.9612  142.9642  162.6534 C.ar    1  UNL1        0.1497
     11 O         140.0045  142.5076  164.0816 O.3     1  UNL1       -0.4519
     12 C         139.5631  141.1949  164.6577 C.ar    1  UNL1        0.1631
     13 C         139.7811  141.1461  166.1409 C.ar    1  UNL1        0.0728
     14 C         139.4053  139.9171  166.9143 C.ar    1  UNL1        0.1316
     15 N         138.8114  138.7367  166.2045 N.ar    1  UNL1       -0.2279
     16 C         138.5932  138.7854  164.7212 C.ar    1  UNL1        0.1182
     17 C         138.9691  140.0145  163.9478 C.ar    1  UNL1        0.1084
     18 N         139.6235  139.8685  168.3976 N.pl3   1  UNL1       -0.3196
     19 H         139.1417  139.2067  168.9445 H       1  UNL1        0.1481
     20 C         140.5756  140.8281  169.0475 C.3     1  UNL1        0.0705
     21 C         140.0661  142.1165  169.6224 C.3     1  UNL1        0.0220
     22 C         141.0183  143.0762  170.2724 C.3     1  UNL1        0.0309
     23 C         142.4799  142.7474  170.3474 C.3     1  UNL1        0.1106
     24 O         143.4320  143.7072  170.9973 O.3     1  UNL1       -0.3845
     25 C         142.9893  141.4591  169.7724 C.3     1  UNL1        0.0309
     26 C         142.0372  140.4994  169.1225 C.3     1  UNL1        0.0220
     27 H         142.9434  144.4833  171.3134 H       1  UNL1        0.2103
@<TRIPOS>BOND
     1     1     2    1
     2     2     3   am
     3     3     4    2
     4     3     5    1
     5     5     6   ar
     6     6     7   ar
     7     7     8   ar
     8     8     9   ar
     9     9    10   ar
    10    10    11    1
    11    11    12    1
    12    12    13   ar
    13    13    14   ar
    14    14    18    1
    15    20    18    1
    16    20    21    1
    17    21    22    1
    18    22    23    1
    19    23    24    1
    20    23    25    1
    21    25    26    1
    22    14    15   ar
    23    15    16   ar
    24    16    17   ar
    25    17     2    1
    26    10     5   ar
    27    17    12   ar
    28    26    20    1
    29    18    19    1
    30    24    27    1
@<TRIPOS>MOLECULE
*****
 27 30 0 0 0
SMALL
GASTEIGER

@<TRIPOS>ATOM
      1 C         138.5439  139.9061  161.5171 C.3     1  UNL1        0.1205
      2 N         139.7764  140.3696  162.2355 N.am    1  UNL1       -0.2494
      3 C         140.8666  140.9235  161.3668 C.2     1  UNL1        0.2558
      4 O         140.5801  140.9406  159.8945 O.2     1  UNL1       -0.2695
      5 C         142.2054  141.4625  161.7756 C.ar    1  UNL1        0.0884
      6 C         142.9986  141.9187  160.5871 C.ar    1  UNL1        0.0076
      7 C         144.3711  142.4932  160.7772 C.ar    1  UNL1        0.0003
      8 C         144.9503  142.6115  162.1558 C.ar    1  UNL1        0.0031
      9 C         144.1571  142.1552  163.3443 C.ar    1  UNL1        0.0376
     10 C         142.7846  141.5808  163.1542 C.ar    1  UNL1        0.1497
     11 O         142.1681  141.1892  164.4644 O.3     1  UNL1       -0.4519
     12 C         140.8202  140.5827  164.7197 C.ar    1  UNL1        0.1631
     13 C         140.5943  140.3451  166.1834 C.ar    1  UNL1        0.0728
     14 C         139.3041  139.7428  166.6552 C.ar    1  UNL1        0.1316
     15 N         138.2398  139.3781  165.6633 N.ar    1  UNL1       -0.2279
     16 C         138.4655  139.6156  164.1995 C.ar    1  UNL1        0.1182
     17 C         139.7557  140.2179  163.7277 C.ar    1  UNL1        0.1084
     18 N         139.0784  139.5053  168.1190 N.pl3   1  UNL1       -0.3196
     19 H         138.3953  138.8604  168.4134 H       1  UNL1        0.1481
     20 C         139.8934  140.2504  169.1341 C.3     1  UNL1        0.0705
     21 C         139.4466  141.6010  169.6097 C.3     1  UNL1        0.0220
     22 C         140.2616  142.3461  170.6249 C.3     1  UNL1        0.0309
     23 C         141.5234  141.7405  171.1645 C.3     1  UNL1        0.1106
     24 O         142.3384  142.4856  172.1798 O.3     1  UNL1       -0.3845
     25 C         141.9702  140.3899  170.6889 C.3     1  UNL1        0.0309
     26 C         141.1552  139.6448  169.6737 C.3     1  UNL1        0.0220
     27 H         141.9126  143.3348  172.3760 H       1  UNL1        0.2103
@<TRIPOS>BOND
     1     1     2    1
     2     2     3   am
     3     3     4    2
     4     3     5    1
     5     5     6   ar
     6     6     7   ar
     7     7     8   ar
     8     8     9   ar
     9     9    10   ar
    10    10    11    1
    11    11    12    1
    12    12    13   ar
    13    13    14   ar
    14    14    18    1
    15    20    18    1
    16    20    21    1
    17    21    22    1
    18    22    23    1
    19    23    24    1
    20    23    25    1
    21    25    26    1
    22    14    15   ar
    23    15    16   ar
    24    16    17   ar
    25    17     2    1
    26    10     5   ar
    27    17    12   ar
    28    26    20    1
    29    18    19    1
    30    24    27    1
@<TRIPOS>MOLECULE
*****
 27 30 0 0 0
SMALL
GASTEIGER

@<TRIPOS>ATOM
      1 C         137.7564  139.5125  162.7109 C.3     1  UNL1        0.1205
      2 N         138.4670  140.4732  163.6176 N.am    1  UNL1       -0.2494
      3 C         138.6870  139.9995  165.0238 C.2     1  UNL1        0.2558
      4 O         138.1672  138.6278  165.3373 O.2     1  UNL1       -0.2695
      5 C         139.3579  140.7161  166.1580 C.ar    1  UNL1        0.0884
      6 C         139.3668  139.8820  167.4046 C.ar    1  UNL1        0.0076
      7 C         139.9924  140.4152  168.6592 C.ar    1  UNL1        0.0003
      8 C         140.6092  141.7825  168.6673 C.ar    1  UNL1        0.0031
      9 C         140.6003  142.6166  167.4207 C.ar    1  UNL1        0.0376
     10 C         139.9747  142.0835  166.1660 C.ar    1  UNL1        0.1497
     11 O         140.0728  143.0718  165.0419 O.3     1  UNL1       -0.4519
     12 C         139.5784  142.9371  163.6322 C.ar    1  UNL1        0.1631
     13 C         139.8816  144.1646  162.8253 C.ar    1  UNL1        0.0728
     14 C         139.4702  144.2357  161.3846 C.ar    1  UNL1        0.1316
     15 N         138.7556  143.0793  160.7507 N.ar    1  UNL1       -0.2279
     16 C         138.4523  141.8516  161.5576 C.ar    1  UNL1        0.1182
     17 C         138.8637  141.7805  162.9983 C.ar    1  UNL1        0.1084
     18 N         139.7734  145.4634  160.5778 N.pl3   1  UNL1       -0.3196
     19 H         139.4470  146.3425  160.8777 H       1  UNL1        0.1481
     20 C         140.5739  145.3517  159.3143 C.3     1  UNL1        0.0705
     21 C         141.7985  144.4863  159.2762 C.3     1  UNL1        0.0220
     22 C         142.5990  144.3747  158.0125 C.3     1  UNL1        0.0309
     23 C         142.1748  145.1284  156.7870 C.3     1  UNL1        0.1106
     24 O         142.9754  145.0167  155.5233 O.3     1  UNL1       -0.3845
     25 C         140.9502  145.9938  156.8251 C.3     1  UNL1        0.0309
     26 C         140.1497  146.1055  158.0886 C.3     1  UNL1        0.0220
     27 H         143.7283  144.4227  155.6690 H       1  UNL1        0.2103
@<TRIPOS>BOND
     1     1     2    1
     2     2     3   am
     3     3     4    2
     4     3     5    1
     5     5     6   ar
     6     6     7   ar
     7     7     8   ar
     8     8     9   ar
     9     9    10   ar
    10    10    11    1
    11    11    12    1
    12    12    13   ar
    13    13    14   ar
    14    14    18    1
    15    20    18    1
    16    20    21    1
    17    21    22    1
    18    22    23    1
    19    23    24    1
    20    23    25    1
    21    25    26    1
    22    14    15   ar
    23    15    16   ar
    24    16    17   ar
    25    17     2    1
    26    10     5   ar
    27    17    12   ar
    28    26    20    1
    29    18    19    1
    30    24    27    1
@<TRIPOS>MOLECULE
*****
 27 30 0 0 0
SMALL
GASTEIGER

@<TRIPOS>ATOM
      1 C         138.6120  137.9235  165.6969 C.3     1  UNL1        0.1205
      2 N         139.6392  138.8947  166.1984 N.am    1  UNL1       -0.2494
      3 C         139.3163  139.5704  167.4980 C.2     1  UNL1        0.2558
      4 O         138.0088  139.1855  168.1244 O.2     1  UNL1       -0.2695
      5 C         140.1279  140.5801  168.2542 C.ar    1  UNL1        0.0884
      6 C         139.4374  141.0039  169.5166 C.ar    1  UNL1        0.0076
      7 C         140.0820  142.0111  170.4221 C.ar    1  UNL1        0.0003
      8 C         141.4170  142.5945  170.0653 C.ar    1  UNL1        0.0031
      9 C         142.1075  142.1707  168.8030 C.ar    1  UNL1        0.0376
     10 C         141.4630  141.1635  167.8974 C.ar    1  UNL1        0.1497
     11 O         142.3161  140.8813  166.6963 O.3     1  UNL1       -0.4519
     12 C         142.0449  139.9460  165.5554 C.ar    1  UNL1        0.1631
     13 C         143.1629  139.9626  164.5555 C.ar    1  UNL1        0.0728
     14 C         143.0895  139.0951  163.3340 C.ar    1  UNL1        0.1316
     15 N         141.8983  138.2110  163.1124 N.ar    1  UNL1       -0.2279
     16 C         140.7802  138.1944  164.1123 C.ar    1  UNL1        0.1182
     17 C         140.8535  139.0619  165.3338 C.ar    1  UNL1        0.1084
     18 N         144.2076  139.1118  162.3342 N.pl3   1  UNL1       -0.3196
     19 H         144.9324  138.4483  162.3951 H       1  UNL1        0.1481
     20 C         144.2214  140.1393  161.2415 C.3     1  UNL1        0.0705
     21 C         143.8672  139.7463  159.8379 C.3     1  UNL1        0.0220
     22 C         143.8810  140.7739  158.7452 C.3     1  UNL1        0.0309
     23 C         144.2490  142.1943  159.0562 C.3     1  UNL1        0.1106
     24 O         144.2628  143.2219  157.9634 O.3     1  UNL1       -0.3845
     25 C         144.6032  142.5873  160.4598 C.3     1  UNL1        0.0309
     26 C         144.5894  141.5598  161.5524 C.3     1  UNL1        0.0220
     27 H         144.0116  142.8050  157.1244 H       1  UNL1        0.2103
@<TRIPOS>BOND
     1     1     2    1
     2     2     3   am
     3     3     4    2
     4     3     5    1
     5     5     6   ar
     6     6     7   ar
     7     7     8   ar
     8     8     9   ar
     9     9    10   ar
    10    10    11    1
    11    11    12    1
    12    12    13   ar
    13    13    14   ar
    14    14    18    1
    15    20    18    1
    16    20    21    1
    17    21    22    1
    18    22    23    1
    19    23    24    1
    20    23    25    1
    21    25    26    1
    22    14    15   ar
    23    15    16   ar
    24    16    17   ar
    25    17     2    1
    26    10     5   ar
    27    17    12   ar
    28    26    20    1
    29    18    19    1
    30    24    27    1
@<TRIPOS>MOLECULE
*****
 27 30 0 0 0
SMALL
GASTEIGER

@<TRIPOS>ATOM
      1 C         139.2705  145.1550  163.1706 C.3     1  UNL1        0.1205
      2 N         140.4204  144.4357  162.5302 N.am    1  UNL1       -0.2494
      3 C         140.6281  144.7103  161.0702 C.2     1  UNL1        0.2558
      4 O         139.6583  145.6679  160.4438 O.2     1  UNL1       -0.2695
      5 C         141.6772  144.1539  160.1538 C.ar    1  UNL1        0.0884
      6 C         141.5288  144.6906  158.7611 C.ar    1  UNL1        0.0076
      7 C         142.4812  144.2589  157.6856 C.ar    1  UNL1        0.0003
      8 C         143.5818  143.2905  158.0029 C.ar    1  UNL1        0.0031
      9 C         143.7302  142.7538  159.3957 C.ar    1  UNL1        0.0376
     10 C         142.7779  143.1855  160.4712 C.ar    1  UNL1        0.1497
     11 O         143.1012  142.5343  161.7832 O.3     1  UNL1       -0.4519
     12 C         142.4038  142.6906  163.1020 C.ar    1  UNL1        0.1631
     13 C         143.0517  141.8564  164.1669 C.ar    1  UNL1        0.0728
     14 C         142.5066  141.8683  165.5643 C.ar    1  UNL1        0.1316
     15 N         141.3136  142.7145  165.8968 N.ar    1  UNL1       -0.2279
     16 C         140.6656  143.5488  164.8318 C.ar    1  UNL1        0.1182
     17 C         141.2107  143.5369  163.4344 C.ar    1  UNL1        0.1084
     18 N         143.1546  141.0340  166.6292 N.pl3   1  UNL1       -0.3196
     19 H         143.9796  140.5352  166.4297 H       1  UNL1        0.1481
     20 C         142.5457  140.9596  167.9980 C.3     1  UNL1        0.0705
     21 C         143.0089  141.8933  169.0767 C.3     1  UNL1        0.0220
     22 C         142.3999  141.8189  170.4455 C.3     1  UNL1        0.0309
     23 C         141.3278  140.8108  170.7356 C.3     1  UNL1        0.1106
     24 O         140.7188  140.7364  172.1045 O.3     1  UNL1       -0.3845
     25 C         140.8645  139.8771  169.6569 C.3     1  UNL1        0.0309
     26 C         141.4735  139.9515  168.2881 C.3     1  UNL1        0.0220
     27 H         141.1281  141.4039  172.6771 H       1  UNL1        0.2103
@<TRIPOS>BOND
     1     1     2    1
     2     2     3   am
     3     3     4    2
     4     3     5    1
     5     5     6   ar
     6     6     7   ar
     7     7     8   ar
     8     8     9   ar
     9     9    10   ar
    10    10    11    1
    11    11    12    1
    12    12    13   ar
    13    13    14   ar
    14    14    18    1
    15    20    18    1
    16    20    21    1
    17    21    22    1
    18    22    23    1
    19    23    24    1
    20    23    25    1
    21    25    26    1
    22    14    15   ar
    23    15    16   ar
    24    16    17   ar
    25    17     2    1
    26    10     5   ar
    27    17    12   ar
    28    26    20    1
    29    18    19    1
    30    24    27    1
@<TRIPOS>MOLECULE
*****
 27 30 0 0 0
SMALL
GASTEIGER

@<TRIPOS>ATOM
      1 C         140.0528  145.8332  162.0834 C.3     1  UNL1        0.1205
      2 N         140.7463  144.5134  161.9196 N.am    1  UNL1       -0.2494
      3 C         141.5513  144.3524  160.6642 C.2     1  UNL1        0.2558
      4 O         141.5563  145.5328  159.7385 O.2     1  UNL1       -0.2695
      5 C         142.3519  143.1673  160.2119 C.ar    1  UNL1        0.0884
      6 C         143.0085  143.4226  158.8877 C.ar    1  UNL1        0.0076
      7 C         143.8585  142.3609  158.2549 C.ar    1  UNL1        0.0003
      8 C         144.0519  141.0440  158.9465 C.ar    1  UNL1        0.0031
      9 C         143.3953  140.7887  160.2707 C.ar    1  UNL1        0.0376
     10 C         142.5453  141.8504  160.9034 C.ar    1  UNL1        0.1497
     11 O         141.9858  141.3933  162.2180 O.3     1  UNL1       -0.4519
     12 C         141.0948  142.1402  163.1657 C.ar    1  UNL1        0.1631
     13 C         140.7645  141.3144  164.3736 C.ar    1  UNL1        0.0728
     14 C         139.8827  141.8771  165.4486 C.ar    1  UNL1        0.1316
     15 N         139.3311  143.2656  165.3158 N.ar    1  UNL1       -0.2279
     16 C         139.6613  144.0915  164.1079 C.ar    1  UNL1        0.1182
     17 C         140.5431  143.5288  163.0329 C.ar    1  UNL1        0.1084
     18 N         139.5525  141.0512  166.6565 N.pl3   1  UNL1       -0.3196
     19 H         138.9080  140.3105  166.5850 H       1  UNL1        0.1481
     20 C         140.2044  141.3538  167.9730 C.3     1  UNL1        0.0705
     21 C         140.4481  140.2511  168.9603 C.3     1  UNL1        0.0220
     22 C         141.1000  140.5538  170.2769 C.3     1  UNL1        0.0309
     23 C         141.5081  141.9591  170.6062 C.3     1  UNL1        0.1106
     24 O         142.1600  142.2616  171.9229 O.3     1  UNL1       -0.3845
     25 C         141.2644  143.0618  169.6190 C.3     1  UNL1        0.0309
     26 C         140.6125  142.7592  168.3024 C.3     1  UNL1        0.0220
     27 H         142.2426  141.4440  172.4383 H       1  UNL1        0.2103
@<TRIPOS>BOND
     1     1     2    1
     2     2     3   am
     3     3     4    2
     4     3     5    1
     5     5     6   ar
     6     6     7   ar
     7     7     8   ar
     8     8     9   ar
     9     9    10   ar
    10    10    11    1
    11    11    12    1
    12    12    13   ar
    13    13    14   ar
    14    14    18    1
    15    20    18    1
    16    20    21    1
    17    21    22    1
    18    22    23    1
    19    23    24    1
    20    23    25    1
    21    25    26    1
    22    14    15   ar
    23    15    16   ar
    24    16    17   ar
    25    17     2    1
    26    10     5   ar
    27    17    12   ar
    28    26    20    1
    29    18    19    1
    30    24    27    1
@<TRIPOS>MOLECULE
*****
 27 30 0 0 0
SMALL
GASTEIGER

@<TRIPOS>ATOM
      1 C         140.0753  144.0770  161.4125 C.3     1  UNL1        0.1205
      2 N         140.7751  142.8639  161.9496 N.am    1  UNL1       -0.2494
      3 C         141.4200  141.9777  160.9254 C.2     1  UNL1        0.2558
      4 O         141.2797  142.4220  159.4996 O.2     1  UNL1       -0.2695
      5 C         142.1866  140.7061  161.1384 C.ar    1  UNL1        0.0884
      6 C         142.6654  140.1306  159.8387 C.ar    1  UNL1        0.0076
      7 C         143.4553  138.8554  159.8288 C.ar    1  UNL1        0.0003
      8 C         143.7663  138.1559  161.1187 C.ar    1  UNL1        0.0031
      9 C         143.2876  138.7315  162.4185 C.ar    1  UNL1        0.0376
     10 C         142.4977  140.0066  162.4283 C.ar    1  UNL1        0.1497
     11 O         142.1190  140.4059  163.8238 O.3     1  UNL1       -0.4519
     12 C         141.3357  141.6033  164.2740 C.ar    1  UNL1        0.1631
     13 C         141.1801  141.6272  165.7656 C.ar    1  UNL1        0.0728
     14 C         140.4264  142.7450  166.4233 C.ar    1  UNL1        0.1316
     15 N         139.8284  143.8389  165.5892 N.ar    1  UNL1       -0.2279
     16 C         139.9839  143.8150  164.0974 C.ar    1  UNL1        0.1182
     17 C         140.7376  142.6972  163.4398 C.ar    1  UNL1        0.1084
     18 N         140.2709  142.7689  167.9150 N.pl3   1  UNL1       -0.3196
     19 H         139.5728  143.3268  168.3282 H       1  UNL1        0.1481
     20 C         141.1787  141.9428  168.7771 C.3     1  UNL1        0.0705
     21 C         142.5612  142.4310  169.0938 C.3     1  UNL1        0.0220
     22 C         143.4691  141.6049  169.9560 C.3     1  UNL1        0.0309
     23 C         142.9945  140.2906  170.5013 C.3     1  UNL1        0.1106
     24 O         143.9025  139.4645  171.3634 O.3     1  UNL1       -0.3845
     25 C         141.6120  139.8024  170.1845 C.3     1  UNL1        0.0309
     26 C         140.7041  140.6285  169.3224 C.3     1  UNL1        0.0220
     27 H         144.7519  139.9209  171.4688 H       1  UNL1        0.2103
@<TRIPOS>BOND
     1     1     2    1
     2     2     3   am
     3     3     4    2
     4     3     5    1
     5     5     6   ar
     6     6     7   ar
     7     7     8   ar
     8     8     9   ar
     9     9    10   ar
    10    10    11    1
    11    11    12    1
    12    12    13   ar
    13    13    14   ar
    14    14    18    1
    15    20    18    1
    16    20    21    1
    17    21    22    1
    18    22    23    1
    19    23    24    1
    20    23    25    1
    21    25    26    1
    22    14    15   ar
    23    15    16   ar
    24    16    17   ar
    25    17     2    1
    26    10     5   ar
    27    17    12   ar
    28    26    20    1
    29    18    19    1
    30    24    27    1
@<TRIPOS>MOLECULE
*****
 27 30 0 0 0
SMALL
GASTEIGER

@<TRIPOS>ATOM
      1 C         139.9025  145.3351  161.9353 C.3     1  UNL1        0.1205
      2 N         139.8218  143.8445  161.7886 N.am    1  UNL1       -0.2494
      3 C         139.6777  143.3354  160.3851 C.2     1  UNL1        0.2558
      4 O         139.6334  144.3843  159.3137 O.2     1  UNL1       -0.2695
      5 C         139.5721  141.9162  159.9111 C.ar    1  UNL1        0.0884
      6 C         139.4403  141.8452  158.4186 C.ar    1  UNL1        0.0076
      7 C         139.3210  140.5135  157.7388 C.ar    1  UNL1        0.0003
      8 C         139.3334  139.2527  158.5514 C.ar    1  UNL1        0.0031
      9 C         139.4651  139.3237  160.0439 C.ar    1  UNL1        0.0376
     10 C         139.5845  140.6554  160.7237 C.ar    1  UNL1        0.1497
     11 O         139.7056  140.5026  162.2110 O.3     1  UNL1       -0.4519
     12 C         139.8441  141.5727  163.2530 C.ar    1  UNL1        0.1631
     13 C         139.9361  140.9873  164.6310 C.ar    1  UNL1        0.0728
     14 C         140.0797  141.8892  165.8210 C.ar    1  UNL1        0.1316
     15 N         140.1314  143.3764  165.6330 N.ar    1  UNL1       -0.2279
     16 C         140.0395  143.9618  164.2550 C.ar    1  UNL1        0.1182
     17 C         139.8959  143.0600  163.0650 C.ar    1  UNL1        0.1084
     18 N         140.1716  141.3036  167.1989 N.pl3   1  UNL1       -0.3196
     19 H         139.6789  140.4798  167.4175 H       1  UNL1        0.1481
     20 C         141.0141  141.9732  168.2437 C.3     1  UNL1        0.0705
     21 C         142.4648  141.6167  168.3792 C.3     1  UNL1        0.0220
     22 C         143.3073  142.2863  169.4241 C.3     1  UNL1        0.0309
     23 C         142.6991  143.3125  170.3335 C.3     1  UNL1        0.1106
     24 O         143.5416  143.9822  171.3784 O.3     1  UNL1       -0.3845
     25 C         141.2484  143.6691  170.1980 C.3     1  UNL1        0.0309
     26 C         140.4059  142.9995  169.1532 C.3     1  UNL1        0.0220
     27 H         144.4480  143.6398  171.3312 H       1  UNL1        0.2103
@<TRIPOS>BOND
     1     1     2    1
     2     2     3   am
     3     3     4    2
     4     3     5    1
     5     5     6   ar
     6     6     7   ar
     7     7     8   ar
     8     8     9   ar
     9     9    10   ar
    10    10    11    1
    11    11    12    1
    12    12    13   ar
    13    13    14   ar
    14    14    18    1
    15    20    18    1
    16    20    21    1
    17    21    22    1
    18    22    23    1
    19    23    24    1
    20    23    25    1
    21    25    26    1
    22    14    15   ar
    23    15    16   ar
    24    16    17   ar
    25    17     2    1
    26    10     5   ar
    27    17    12   ar
    28    26    20    1
    29    18    19    1
    30    24    27    1
