@<TRIPOS>MOLECULE
*****
 38 43 0 0 0
SMALL
GASTEIGER

@<TRIPOS>ATOM
      1 C         139.5238  138.4267  159.7762 C.3     1  UNL1        0.0310
      2 C         139.9355  138.8523  161.1544 C.ar    1  UNL1       -0.0221
      3 C         139.9079  137.8655  162.2837 C.ar    1  UNL1       -0.0041
      4 C         140.3197  138.2912  163.6620 C.ar    1  UNL1        0.0042
      5 C         140.7590  139.7036  163.9108 C.ar    1  UNL1        0.0536
      6 C         140.7865  140.6905  162.7813 C.ar    1  UNL1        0.0039
      7 C         140.3748  140.2648  161.4032 C.ar    1  UNL1       -0.0074
      8 C         140.4024  141.2516  160.2738 C.2     1  UNL1       -0.0164
      9 C         139.3119  142.2733  160.1438 C.2     1  UNL1       -0.0038
     10 C         139.3395  143.2600  159.0144 C.2     1  UNL1        0.0025
     11 C         140.4576  143.2252  158.0151 C.2     1  UNL1        0.0351
     12 C         140.7497  144.0636  156.8060 C.2     1  UNL1        0.1070
     13 N         142.0208  143.5601  156.1889 N.2     1  UNL1       -0.1482
     14 N         142.5142  142.4105  157.0166 N.2     1  UNL1       -0.1520
     15 C         141.5481  142.2035  158.1452 C.2     1  UNL1        0.0864
     16 C         141.5205  141.2168  159.2745 C.3     1  UNL1        0.0739
     17 C         139.9169  145.2051  156.3026 C.ar    1  UNL1        0.0590
     18 C         138.9292  145.1458  155.1753 C.ar    1  UNL1        0.1232
     19 N         138.3275  146.5103  155.0140 N.ar    1  UNL1       -0.1677
     20 N         138.9433  147.4129  156.0416 N.ar    1  UNL1       -0.2513
     21 C         139.9257  146.6062  156.8380 C.ar    1  UNL1        0.0981
     22 C         138.6316  148.8669  156.2382 C.3     1  UNL1        0.1054
     23 C         138.5167  150.2570  155.6866 C.3     1  UNL1        0.0263
     24 C         138.2064  149.9951  157.1306 C.3     1  UNL1        0.0263
     25 C         141.1707  140.1293  165.2889 C.2     1  UNL1        0.2495
     26 O         141.6036  139.1025  166.2930 O.2     1  UNL1       -0.2698
     27 N         141.1496  141.5818  165.6629 N.am    1  UNL1       -0.2804
     28 H         140.8655  142.2557  165.0038 H       1  UNL1        0.1552
     29 C         141.5613  142.0075  167.0410 C.ar    1  UNL1        0.0505
     30 C         143.0092  141.9835  167.4322 C.ar    1  UNL1        0.0147
     31 C         143.4209  142.4092  168.8104 C.ar    1  UNL1        0.0012
     32 C         142.3847  142.8588  169.7973 C.ar    1  UNL1        0.0039
     33 C         140.9368  142.8828  169.4061 C.ar    1  UNL1        0.0726
     34 C         140.5251  142.4571  168.0280 C.ar    1  UNL1        0.0185
     35 C         139.9006  143.3325  170.3931 C.3     1  UNL1        0.4186
     36 F         138.8644  143.7821  171.3801 F       1  UNL1       -0.1659
     37 F         139.3335  141.9444  170.4300 F       1  UNL1       -0.1659
     38 F         140.4678  144.7206  170.3561 F       1  UNL1       -0.1659
@<TRIPOS>BOND
     1     1     2    1
     2     2     3   ar
     3     3     4   ar
     4     4     5   ar
     5     5    25    1
     6    25    26    2
     7    25    27   am
     8    27    29    1
     9    29    30   ar
    10    30    31   ar
    11    31    32   ar
    12    32    33   ar
    13    33    35    1
    14    35    36    1
    15    35    37    1
    16    35    38    1
    17    33    34   ar
    18     5     6   ar
    19     6     7   ar
    20     7     8    1
    21     8     9    2
    22     9    10    1
    23    10    11    2
    24    11    12    1
    25    12    17    1
    26    17    18   ar
    27    18    19   ar
    28    19    20   ar
    29    20    22    1
    30    22    23    1
    31    23    24    1
    32    20    21   ar
    33    12    13    2
    34    13    14    1
    35    14    15    2
    36    15    16    1
    37     7     2   ar
    38    16     8    1
    39    34    29   ar
    40    15    11    1
    41    21    17   ar
    42    24    22    1
    43    27    28    1
@<TRIPOS>MOLECULE
*****
 38 43 0 0 0
SMALL
GASTEIGER

@<TRIPOS>ATOM
      1 C         138.4984  141.9746  158.6892 C.3     1  UNL1        0.0310
      2 C         139.0646  142.2256  160.0554 C.ar    1  UNL1       -0.0221
      3 C         138.4454  143.2623  160.9451 C.ar    1  UNL1       -0.0041
      4 C         139.0116  143.5133  162.3113 C.ar    1  UNL1        0.0042
      5 C         140.1971  142.7275  162.7877 C.ar    1  UNL1        0.0536
      6 C         140.8164  141.6907  161.8980 C.ar    1  UNL1        0.0039
      7 C         140.2502  141.4397  160.5319 C.ar    1  UNL1       -0.0074
      8 C         140.8694  140.4029  159.6421 C.2     1  UNL1       -0.0164
      9 C         140.2485  139.0420  159.5313 C.2     1  UNL1       -0.0038
     10 C         140.8678  138.0053  158.6416 C.2     1  UNL1        0.0025
     11 C         142.1080  138.3295  157.8626 C.2     1  UNL1        0.0351
     12 C         142.9371  137.5176  156.9121 C.2     1  UNL1        0.1070
     13 N         144.0705  138.3768  156.4354 N.2     1  UNL1       -0.1482
     14 N         143.9418  139.7197  157.0914 N.2     1  UNL1       -0.1520
     15 C         142.7289  139.6904  157.9734 C.2     1  UNL1        0.0864
     16 C         142.1097  140.7271  158.8631 C.3     1  UNL1        0.0739
     17 C         142.6783  136.0962  156.5090 C.ar    1  UNL1        0.0590
     18 C         141.4945  135.6018  155.7317 C.ar    1  UNL1        0.1232
     19 N         141.6424  134.1196  155.5548 N.ar    1  UNL1       -0.1677
     20 N         142.9176  133.6980  156.2226 N.ar    1  UNL1       -0.2513
     21 C         143.5578  134.9196  156.8124 C.ar    1  UNL1        0.0981
     22 C         143.4577  132.3002  156.2891 C.3     1  UNL1        0.1054
     23 C         143.2609  130.8447  156.5931 C.3     1  UNL1        0.0263
     24 C         144.5901  131.3348  156.1002 C.3     1  UNL1        0.0263
     25 C         140.7634  142.9784  164.1539 C.2     1  UNL1        0.2495
     26 O         141.3770  144.3080  164.4787 O.2     1  UNL1       -0.2698
     27 N         140.7161  141.8997  165.1951 N.am    1  UNL1       -0.2804
     28 H         140.3134  141.0270  164.9819 H       1  UNL1        0.1552
     29 C         141.2824  142.1506  166.5612 C.ar    1  UNL1        0.0505
     30 C         142.7582  142.0220  166.7966 C.ar    1  UNL1        0.0147
     31 C         143.3244  142.2729  168.1628 C.ar    1  UNL1        0.0012
     32 C         142.4149  142.6525  169.2936 C.ar    1  UNL1        0.0039
     33 C         140.9390  142.7812  169.0582 C.ar    1  UNL1        0.0726
     34 C         140.3728  142.5302  167.6921 C.ar    1  UNL1        0.0185
     35 C         140.0295  143.1607  170.1889 C.3     1  UNL1        0.4186
     36 F         139.1199  143.5404  171.3197 F       1  UNL1       -0.1659
     37 F         140.3595  144.6073  169.9688 F       1  UNL1       -0.1659
     38 F         139.6995  141.7142  170.4090 F       1  UNL1       -0.1659
@<TRIPOS>BOND
     1     1     2    1
     2     2     3   ar
     3     3     4   ar
     4     4     5   ar
     5     5    25    1
     6    25    26    2
     7    25    27   am
     8    27    29    1
     9    29    30   ar
    10    30    31   ar
    11    31    32   ar
    12    32    33   ar
    13    33    35    1
    14    35    36    1
    15    35    37    1
    16    35    38    1
    17    33    34   ar
    18     5     6   ar
    19     6     7   ar
    20     7     8    1
    21     8     9    2
    22     9    10    1
    23    10    11    2
    24    11    12    1
    25    12    17    1
    26    17    18   ar
    27    18    19   ar
    28    19    20   ar
    29    20    22    1
    30    22    23    1
    31    23    24    1
    32    20    21   ar
    33    12    13    2
    34    13    14    1
    35    14    15    2
    36    15    16    1
    37     7     2   ar
    38    16     8    1
    39    34    29   ar
    40    15    11    1
    41    21    17   ar
    42    24    22    1
    43    27    28    1
@<TRIPOS>MOLECULE
*****
 38 43 0 0 0
SMALL
GASTEIGER

@<TRIPOS>ATOM
      1 C         139.6908  143.0621  159.4362 C.3     1  UNL1        0.0310
      2 C         139.9863  142.8150  160.8860 C.ar    1  UNL1       -0.0221
      3 C         139.5068  143.7848  161.9250 C.ar    1  UNL1       -0.0041
      4 C         139.8023  143.5377  163.3748 C.ar    1  UNL1        0.0042
      5 C         140.5774  142.3209  163.7854 C.ar    1  UNL1        0.0536
      6 C         141.0570  141.3512  162.7463 C.ar    1  UNL1        0.0039
      7 C         140.7614  141.5982  161.2967 C.ar    1  UNL1       -0.0074
      8 C         141.2410  140.6285  160.2576 C.2     1  UNL1       -0.0164
      9 C         140.4923  139.3502  160.0223 C.2     1  UNL1       -0.0038
     10 C         140.9719  138.3806  158.9832 C.2     1  UNL1        0.0025
     11 C         142.2002  138.6891  158.1794 C.2     1  UNL1        0.0351
     12 C         142.9066  137.9310  157.0948 C.2     1  UNL1        0.1070
     13 N         144.0919  138.7408  156.6598 N.2     1  UNL1       -0.1482
     14 N         144.1180  139.9994  157.4756 N.2     1  UNL1       -0.1520
     15 C         142.9489  139.9674  158.4147 C.2     1  UNL1        0.0864
     16 C         142.4693  140.9371  159.4538 C.3     1  UNL1        0.0739
     17 C         142.4992  136.5974  156.5423 C.ar    1  UNL1        0.0590
     18 C         141.2890  136.3249  155.6990 C.ar    1  UNL1        0.1232
     19 N         141.2723  134.8612  155.3715 N.ar    1  UNL1       -0.1677
     20 N         142.4721  134.2290  156.0124 N.ar    1  UNL1       -0.2513
     21 C         143.2304  135.3021  156.7359 C.ar    1  UNL1        0.0981
     22 C         142.8478  132.7785  155.9420 C.3     1  UNL1        0.1054
     23 C         143.8710  131.7128  155.6833 C.3     1  UNL1        0.0263
     24 C         142.4750  131.3321  156.0789 C.3     1  UNL1        0.0263
     25 C         140.8729  142.0739  165.2351 C.2     1  UNL1        0.2495
     26 O         139.9707  142.6397  166.2914 O.2     1  UNL1       -0.2698
     27 N         142.0706  141.2610  165.6284 N.am    1  UNL1       -0.2804
     28 H         142.6628  140.8897  164.9351 H       1  UNL1        0.1552
     29 C         142.3662  141.0140  167.0781 C.ar    1  UNL1        0.0505
     30 C         142.2273  139.6330  167.6471 C.ar    1  UNL1        0.0147
     31 C         142.5229  139.3860  169.0968 C.ar    1  UNL1        0.0012
     32 C         142.9572  140.5199  169.9775 C.ar    1  UNL1        0.0039
     33 C         143.0961  141.9008  169.4085 C.ar    1  UNL1        0.0726
     34 C         142.8005  142.1479  167.9589 C.ar    1  UNL1        0.0185
     35 C         143.5304  143.0347  170.2892 C.3     1  UNL1        0.4186
     36 F         143.9648  144.1686  171.1699 F       1  UNL1       -0.1659
     37 F         142.1208  143.5462  170.3259 F       1  UNL1       -0.1659
     38 F         144.9400  142.5232  170.2525 F       1  UNL1       -0.1659
@<TRIPOS>BOND
     1     1     2    1
     2     2     3   ar
     3     3     4   ar
     4     4     5   ar
     5     5    25    1
     6    25    26    2
     7    25    27   am
     8    27    29    1
     9    29    30   ar
    10    30    31   ar
    11    31    32   ar
    12    32    33   ar
    13    33    35    1
    14    35    36    1
    15    35    37    1
    16    35    38    1
    17    33    34   ar
    18     5     6   ar
    19     6     7   ar
    20     7     8    1
    21     8     9    2
    22     9    10    1
    23    10    11    2
    24    11    12    1
    25    12    17    1
    26    17    18   ar
    27    18    19   ar
    28    19    20   ar
    29    20    22    1
    30    22    23    1
    31    23    24    1
    32    20    21   ar
    33    12    13    2
    34    13    14    1
    35    14    15    2
    36    15    16    1
    37     7     2   ar
    38    16     8    1
    39    34    29   ar
    40    15    11    1
    41    21    17   ar
    42    24    22    1
    43    27    28    1
@<TRIPOS>MOLECULE
*****
 38 43 0 0 0
SMALL
GASTEIGER

@<TRIPOS>ATOM
      1 C         142.1463  142.7985  158.8613 C.3     1  UNL1        0.0310
      2 C         142.4422  141.4342  158.3125 C.ar    1  UNL1       -0.0221
      3 C         143.1414  141.2920  156.9931 C.ar    1  UNL1       -0.0041
      4 C         143.4374  139.9276  156.4443 C.ar    1  UNL1        0.0042
      5 C         143.0340  138.7056  157.2149 C.ar    1  UNL1        0.0536
      6 C         142.3347  138.8478  158.5344 C.ar    1  UNL1        0.0039
      7 C         142.0388  140.2121  159.0831 C.ar    1  UNL1       -0.0074
      8 C         141.3396  140.3544  160.4025 C.2     1  UNL1       -0.0164
      9 C         142.1359  140.3929  161.6731 C.2     1  UNL1       -0.0038
     10 C         141.4366  140.5352  162.9924 C.2     1  UNL1        0.0025
     11 C         139.9410  140.6389  163.0412 C.2     1  UNL1        0.0351
     12 C         138.9819  140.7858  164.1852 C.2     1  UNL1        0.1070
     13 N         137.5928  140.8381  163.6216 N.2     1  UNL1       -0.1482
     14 N         137.6934  140.7234  162.1294 N.2     1  UNL1       -0.1520
     15 C         139.1447  140.6003  161.7707 C.2     1  UNL1        0.0864
     16 C         139.8439  140.4580  160.4514 C.3     1  UNL1        0.0739
     17 C         139.3477  140.8664  165.6377 C.ar    1  UNL1        0.0590
     18 C         139.2018  139.7655  166.6460 C.ar    1  UNL1        0.1232
     19 N         139.6875  140.2807  167.9683 N.ar    1  UNL1       -0.1677
     20 N         140.1336  141.7000  167.7773 N.ar    1  UNL1       -0.2513
     21 C         139.9236  142.0620  166.3369 C.ar    1  UNL1        0.0981
     22 C         140.6917  142.5994  168.8401 C.3     1  UNL1        0.1054
     23 C         141.8225  143.0002  169.7404 C.3     1  UNL1        0.0263
     24 C         140.5276  143.7563  169.7806 C.3     1  UNL1        0.0263
     25 C         143.3299  137.3413  156.6662 C.2     1  UNL1        0.2495
     26 O         144.4943  137.1410  155.7421 O.2     1  UNL1       -0.2698
     27 N         142.4613  136.1774  157.0415 N.am    1  UNL1       -0.2804
     28 H         141.6971  136.3089  157.6479 H       1  UNL1        0.1552
     29 C         142.7572  134.8131  156.4927 C.ar    1  UNL1        0.0505
     30 C         142.2487  134.4238  155.1363 C.ar    1  UNL1        0.0147
     31 C         142.5446  133.0594  154.5876 C.ar    1  UNL1        0.0012
     32 C         143.3491  132.0845  155.3952 C.ar    1  UNL1        0.0039
     33 C         143.8576  132.4738  156.7516 C.ar    1  UNL1        0.0726
     34 C         143.5617  133.8381  157.3004 C.ar    1  UNL1        0.0185
     35 C         144.6620  131.4989  157.5593 C.3     1  UNL1        0.4186
     36 F         145.4665  130.5239  158.3670 F       1  UNL1       -0.1659
     37 F         145.1784  132.6252  158.4046 F       1  UNL1       -0.1659
     38 F         144.1457  130.3725  156.7139 F       1  UNL1       -0.1659
@<TRIPOS>BOND
     1     1     2    1
     2     2     3   ar
     3     3     4   ar
     4     4     5   ar
     5     5    25    1
     6    25    26    2
     7    25    27   am
     8    27    29    1
     9    29    30   ar
    10    30    31   ar
    11    31    32   ar
    12    32    33   ar
    13    33    35    1
    14    35    36    1
    15    35    37    1
    16    35    38    1
    17    33    34   ar
    18     5     6   ar
    19     6     7   ar
    20     7     8    1
    21     8     9    2
    22     9    10    1
    23    10    11    2
    24    11    12    1
    25    12    17    1
    26    17    18   ar
    27    18    19   ar
    28    19    20   ar
    29    20    22    1
    30    22    23    1
    31    23    24    1
    32    20    21   ar
    33    12    13    2
    34    13    14    1
    35    14    15    2
    36    15    16    1
    37     7     2   ar
    38    16     8    1
    39    34    29   ar
    40    15    11    1
    41    21    17   ar
    42    24    22    1
    43    27    28    1
@<TRIPOS>MOLECULE
*****
 38 43 0 0 0
SMALL
GASTEIGER

@<TRIPOS>ATOM
      1 C         144.1729  142.4573  159.2628 C.3     1  UNL1        0.0310
      2 C         143.8844  142.1700  160.7065 C.ar    1  UNL1       -0.0221
      3 C         144.4228  143.0763  161.7737 C.ar    1  UNL1       -0.0041
      4 C         144.1343  142.7890  163.2174 C.ar    1  UNL1        0.0042
      5 C         143.3075  141.5954  163.5940 C.ar    1  UNL1        0.0536
      6 C         142.7692  140.6891  162.5267 C.ar    1  UNL1        0.0039
      7 C         143.0576  140.9764  161.0831 C.ar    1  UNL1       -0.0074
      8 C         142.5193  140.0701  160.0159 C.2     1  UNL1       -0.0164
      9 C         143.3979  139.0121  159.4171 C.2     1  UNL1       -0.0038
     10 C         142.8595  138.1058  158.3499 C.2     1  UNL1        0.0025
     11 C         141.4426  138.2576  157.8816 C.2     1  UNL1        0.0351
     12 C         140.6405  137.5163  156.8533 C.2     1  UNL1        0.1070
     13 N         139.2662  138.1163  156.8167 N.2     1  UNL1       -0.1482
     14 N         139.2190  139.2283  157.8223 N.2     1  UNL1       -0.1520
     15 C         140.5641  139.3157  158.4804 C.2     1  UNL1        0.0864
     16 C         141.1024  140.2219  159.5475 C.3     1  UNL1        0.0739
     17 C         141.1273  136.3755  156.0099 C.ar    1  UNL1        0.0590
     18 C         140.7609  136.1184  154.5782 C.ar    1  UNL1        0.1232
     19 N         141.4730  134.8755  154.1335 N.ar    1  UNL1       -0.1677
     20 N         142.2795  134.3642  155.2902 N.ar    1  UNL1       -0.2513
     21 C         142.0658  135.2913  156.4499 C.ar    1  UNL1        0.0981
     22 C         143.1473  133.1408  155.2878 C.3     1  UNL1        0.1054
     23 C         143.4964  131.7969  154.7203 C.3     1  UNL1        0.0263
     24 C         144.3014  132.3657  155.8510 C.3     1  UNL1        0.0263
     25 C         143.0190  141.3082  165.0376 C.2     1  UNL1        0.2495
     26 O         143.0785  139.8990  165.5483 O.2     1  UNL1       -0.2698
     27 N         142.6711  142.4300  165.9706 N.am    1  UNL1       -0.2804
     28 H         142.6321  143.3548  165.6354 H       1  UNL1        0.1552
     29 C         142.3826  142.1427  167.4143 C.ar    1  UNL1        0.0505
     30 C         143.4460  142.3611  168.4495 C.ar    1  UNL1        0.0147
     31 C         143.1574  142.0738  169.8932 C.ar    1  UNL1        0.0012
     32 C         141.8056  141.5681  170.3017 C.ar    1  UNL1        0.0039
     33 C         140.7423  141.3496  169.2665 C.ar    1  UNL1        0.0726
     34 C         141.0308  141.6369  167.8228 C.ar    1  UNL1        0.0185
     35 C         139.3905  140.8439  169.6749 C.3     1  UNL1        0.4186
     36 F         138.0387  140.3382  170.0834 F       1  UNL1       -0.1659
     37 F         139.1497  142.1090  170.4440 F       1  UNL1       -0.1659
     38 F         139.6314  139.5789  168.9058 F       1  UNL1       -0.1659
@<TRIPOS>BOND
     1     1     2    1
     2     2     3   ar
     3     3     4   ar
     4     4     5   ar
     5     5    25    1
     6    25    26    2
     7    25    27   am
     8    27    29    1
     9    29    30   ar
    10    30    31   ar
    11    31    32   ar
    12    32    33   ar
    13    33    35    1
    14    35    36    1
    15    35    37    1
    16    35    38    1
    17    33    34   ar
    18     5     6   ar
    19     6     7   ar
    20     7     8    1
    21     8     9    2
    22     9    10    1
    23    10    11    2
    24    11    12    1
    25    12    17    1
    26    17    18   ar
    27    18    19   ar
    28    19    20   ar
    29    20    22    1
    30    22    23    1
    31    23    24    1
    32    20    21   ar
    33    12    13    2
    34    13    14    1
    35    14    15    2
    36    15    16    1
    37     7     2   ar
    38    16     8    1
    39    34    29   ar
    40    15    11    1
    41    21    17   ar
    42    24    22    1
    43    27    28    1
@<TRIPOS>MOLECULE
*****
 38 43 0 0 0
SMALL
GASTEIGER

@<TRIPOS>ATOM
      1 C         141.5766  142.3252  158.5818 C.3     1  UNL1        0.0310
      2 C         141.9503  140.9895  158.0104 C.ar    1  UNL1       -0.0221
      3 C         141.7092  140.7008  156.5584 C.ar    1  UNL1       -0.0041
      4 C         142.0829  139.3652  155.9870 C.ar    1  UNL1        0.0042
      5 C         142.6977  138.3181  156.8678 C.ar    1  UNL1        0.0536
      6 C         142.9388  138.6068  158.3199 C.ar    1  UNL1        0.0039
      7 C         142.5652  139.9425  158.8912 C.ar    1  UNL1       -0.0074
      8 C         142.8063  140.2311  160.3433 C.2     1  UNL1       -0.0164
      9 C         141.7404  139.9304  161.3549 C.2     1  UNL1       -0.0038
     10 C         141.9815  140.2191  162.8069 C.2     1  UNL1        0.0025
     11 C         143.2887  140.8085  163.2474 C.2     1  UNL1        0.0351
     12 C         143.8094  141.1977  164.5993 C.2     1  UNL1        0.1070
     13 N         145.1972  141.7390  164.4231 N.2     1  UNL1       -0.1482
     14 N         145.5341  141.6843  162.9625 N.2     1  UNL1       -0.1520
     15 C         144.3546  141.1093  162.2359 C.2     1  UNL1        0.0864
     16 C         144.1134  140.8206  160.7838 C.3     1  UNL1        0.0739
     17 C         143.0718  141.0684  165.8990 C.ar    1  UNL1        0.0590
     18 C         142.8726  139.8017  166.6773 C.ar    1  UNL1        0.1232
     19 N         142.0816  140.1334  167.9079 N.ar    1  UNL1       -0.1677
     20 N         141.7920  141.6051  167.8901 N.ar    1  UNL1       -0.2513
     21 C         142.4040  142.1829  166.6485 C.ar    1  UNL1        0.0981
     22 C         141.0251  142.3654  168.9311 C.3     1  UNL1        0.1054
     23 C         140.4111  143.6452  169.4158 C.3     1  UNL1        0.0263
     24 C         140.3109  142.4024  170.2496 C.3     1  UNL1        0.0263
     25 C         143.0714  136.9825  156.2965 C.2     1  UNL1        0.2495
     26 O         144.4225  136.7836  155.6763 O.2     1  UNL1       -0.2698
     27 N         142.0939  135.8458  156.3455 N.am    1  UNL1       -0.2804
     28 H         141.2071  135.9764  156.7526 H       1  UNL1        0.1552
     29 C         142.4676  134.5102  155.7742 C.ar    1  UNL1        0.0505
     30 C         142.1125  134.1752  154.3559 C.ar    1  UNL1        0.0147
     31 C         142.4862  132.8395  153.7846 C.ar    1  UNL1        0.0012
     32 C         143.2150  131.8388  154.6317 C.ar    1  UNL1        0.0039
     33 C         143.5700  132.1738  156.0500 C.ar    1  UNL1        0.0726
     34 C         143.1963  133.5094  156.6213 C.ar    1  UNL1        0.0185
     35 C         144.2988  131.1731  156.8971 C.3     1  UNL1        0.4186
     36 F         145.0276  130.1725  157.7442 F       1  UNL1       -0.1659
     37 F         145.6056  131.8051  156.5193 F       1  UNL1       -0.1659
     38 F         142.9919  130.5412  157.2749 F       1  UNL1       -0.1659
@<TRIPOS>BOND
     1     1     2    1
     2     2     3   ar
     3     3     4   ar
     4     4     5   ar
     5     5    25    1
     6    25    26    2
     7    25    27   am
     8    27    29    1
     9    29    30   ar
    10    30    31   ar
    11    31    32   ar
    12    32    33   ar
    13    33    35    1
    14    35    36    1
    15    35    37    1
    16    35    38    1
    17    33    34   ar
    18     5     6   ar
    19     6     7   ar
    20     7     8    1
    21     8     9    2
    22     9    10    1
    23    10    11    2
    24    11    12    1
    25    12    17    1
    26    17    18   ar
    27    18    19   ar
    28    19    20   ar
    29    20    22    1
    30    22    23    1
    31    23    24    1
    32    20    21   ar
    33    12    13    2
    34    13    14    1
    35    14    15    2
    36    15    16    1
    37     7     2   ar
    38    16     8    1
    39    34    29   ar
    40    15    11    1
    41    21    17   ar
    42    24    22    1
    43    27    28    1
@<TRIPOS>MOLECULE
*****
 38 43 0 0 0
SMALL
GASTEIGER

@<TRIPOS>ATOM
      1 C         142.8966  142.2852  158.3266 C.3     1  UNL1        0.0310
      2 C         142.5046  142.0499  159.7553 C.ar    1  UNL1       -0.0221
      3 C         142.7023  143.1319  160.7751 C.ar    1  UNL1       -0.0041
      4 C         142.3103  142.8967  162.2038 C.ar    1  UNL1        0.0042
      5 C         141.7206  141.5794  162.6126 C.ar    1  UNL1        0.0536
      6 C         141.5229  140.4974  161.5926 C.ar    1  UNL1        0.0039
      7 C         141.9149  140.7327  160.1640 C.ar    1  UNL1       -0.0074
      8 C         141.7172  139.6506  159.1441 C.2     1  UNL1       -0.0164
      9 C         142.8064  138.6509  158.8905 C.2     1  UNL1       -0.0038
     10 C         142.6087  137.5690  157.8706 C.2     1  UNL1        0.0025
     11 C         141.3218  137.4867  157.1042 C.2     1  UNL1        0.0351
     12 C         140.8433  136.5385  156.0450 C.2     1  UNL1        0.1070
     13 N         139.4584  136.9522  155.6440 N.2     1  UNL1       -0.1482
     14 N         139.0810  138.1561  156.4553 N.2     1  UNL1       -0.1520
     15 C         140.2327  138.4864  157.3578 C.2     1  UNL1        0.0864
     16 C         140.4304  139.5684  158.3777 C.3     1  UNL1        0.0739
     17 C         141.6143  135.3800  155.4852 C.ar    1  UNL1        0.0590
     18 C         141.6429  134.9521  154.0478 C.ar    1  UNL1        0.1232
     19 N         142.5383  133.7537  153.9387 N.ar    1  UNL1       -0.1677
     20 N         143.0631  133.4408  155.3086 N.ar    1  UNL1       -0.2513
     21 C         142.4920  134.4459  156.2644 C.ar    1  UNL1        0.0981
     22 C         143.9952  132.3197  155.6609 C.3     1  UNL1        0.1054
     23 C         145.1354  131.7860  156.4763 C.3     1  UNL1        0.0263
     24 C         144.4695  130.9116  155.4556 C.3     1  UNL1        0.0263
     25 C         141.3286  141.3441  164.0411 C.2     1  UNL1        0.2495
     26 O         140.1738  140.4427  164.3632 O.2     1  UNL1       -0.2698
     27 N         142.0914  142.0103  165.1477 N.am    1  UNL1       -0.2804
     28 H         142.8493  142.6020  164.9362 H       1  UNL1        0.1552
     29 C         141.6994  141.7750  166.5762 C.ar    1  UNL1        0.0505
     30 C         140.8081  142.7547  167.2805 C.ar    1  UNL1        0.0147
     31 C         140.4161  142.5193  168.7092 C.ar    1  UNL1        0.0012
     32 C         140.9154  141.3044  169.4335 C.ar    1  UNL1        0.0039
     33 C         141.8066  140.3248  168.7292 C.ar    1  UNL1        0.0726
     34 C         142.1986  140.5601  167.3006 C.ar    1  UNL1        0.0185
     35 C         142.3059  139.1099  169.4536 C.3     1  UNL1        0.4186
     36 F         142.8052  137.8949  170.1780 F       1  UNL1       -0.1659
     37 F         141.5612  139.5371  170.6835 F       1  UNL1       -0.1659
     38 F         143.0506  138.6826  168.2236 F       1  UNL1       -0.1659
@<TRIPOS>BOND
     1     1     2    1
     2     2     3   ar
     3     3     4   ar
     4     4     5   ar
     5     5    25    1
     6    25    26    2
     7    25    27   am
     8    27    29    1
     9    29    30   ar
    10    30    31   ar
    11    31    32   ar
    12    32    33   ar
    13    33    35    1
    14    35    36    1
    15    35    37    1
    16    35    38    1
    17    33    34   ar
    18     5     6   ar
    19     6     7   ar
    20     7     8    1
    21     8     9    2
    22     9    10    1
    23    10    11    2
    24    11    12    1
    25    12    17    1
    26    17    18   ar
    27    18    19   ar
    28    19    20   ar
    29    20    22    1
    30    22    23    1
    31    23    24    1
    32    20    21   ar
    33    12    13    2
    34    13    14    1
    35    14    15    2
    36    15    16    1
    37     7     2   ar
    38    16     8    1
    39    34    29   ar
    40    15    11    1
    41    21    17   ar
    42    24    22    1
    43    27    28    1
@<TRIPOS>MOLECULE
*****
 38 43 0 0 0
SMALL
GASTEIGER

@<TRIPOS>ATOM
      1 C         138.4969  142.3876  159.6485 C.3     1  UNL1        0.0310
      2 C         139.0797  142.3888  161.0307 C.ar    1  UNL1       -0.0221
      3 C         138.5430  143.3276  162.0701 C.ar    1  UNL1       -0.0041
      4 C         139.1259  143.3289  163.4523 C.ar    1  UNL1        0.0042
      5 C         140.2455  142.3913  163.7949 C.ar    1  UNL1        0.0536
      6 C         140.7822  141.4524  162.7554 C.ar    1  UNL1        0.0039
      7 C         140.1993  141.4512  161.3733 C.ar    1  UNL1       -0.0074
      8 C         140.7361  140.5124  160.3337 C.2     1  UNL1       -0.0164
      9 C         139.9621  139.2822  159.9629 C.2     1  UNL1       -0.0038
     10 C         140.4988  138.3434  158.9234 C.2     1  UNL1        0.0025
     11 C         141.8095  138.6349  158.2547 C.2     1  UNL1        0.0351
     12 C         142.5847  137.8992  157.2021 C.2     1  UNL1        0.1070
     13 N         143.8378  138.6747  156.9225 N.2     1  UNL1       -0.1482
     14 N         143.8370  139.8897  157.8022 N.2     1  UNL1       -0.1520
     15 C         142.5835  139.8650  158.6256 C.2     1  UNL1        0.0864
     16 C         142.0467  140.8038  159.6651 C.3     1  UNL1        0.0739
     17 C         142.1782  136.6137  156.5447 C.ar    1  UNL1        0.0590
     18 C         141.0458  136.4380  155.5768 C.ar    1  UNL1        0.1232
     19 N         141.0005  134.9940  155.1737 N.ar    1  UNL1       -0.1677
     20 N         142.1047  134.2771  155.8924 N.ar    1  UNL1       -0.2513
     21 C         142.8326  135.2782  156.7398 C.ar    1  UNL1        0.0981
     22 C         142.4249  132.8158  155.7830 C.3     1  UNL1        0.1054
     23 C         143.4206  131.6958  155.8468 C.3     1  UNL1        0.0263
     24 C         141.9837  131.4047  155.5296 C.3     1  UNL1        0.0263
     25 C         140.8284  142.3924  165.1770 C.2     1  UNL1        0.2495
     26 O         142.2613  142.7835  165.3863 O.2     1  UNL1       -0.2698
     27 N         139.9783  142.0026  166.3498 N.am    1  UNL1       -0.2804
     28 H         139.0379  141.7460  166.2125 H       1  UNL1        0.1552
     29 C         140.5612  142.0038  167.7319 C.ar    1  UNL1        0.0505
     30 C         140.4485  143.2273  168.5924 C.ar    1  UNL1        0.0147
     31 C         141.0315  143.2284  169.9745 C.ar    1  UNL1        0.0012
     32 C         141.7270  142.0062  170.4962 C.ar    1  UNL1        0.0039
     33 C         141.8397  140.7827  169.6357 C.ar    1  UNL1        0.0726
     34 C         141.2568  140.7815  168.2536 C.ar    1  UNL1        0.0185
     35 C         142.5353  139.5604  170.1573 C.3     1  UNL1        0.4186
     36 F         143.2309  138.3380  170.6789 F       1  UNL1       -0.1659
     37 F         142.4912  138.9507  168.7876 F       1  UNL1       -0.1659
     38 F         142.5794  140.1700  171.5271 F       1  UNL1       -0.1659
@<TRIPOS>BOND
     1     1     2    1
     2     2     3   ar
     3     3     4   ar
     4     4     5   ar
     5     5    25    1
     6    25    26    2
     7    25    27   am
     8    27    29    1
     9    29    30   ar
    10    30    31   ar
    11    31    32   ar
    12    32    33   ar
    13    33    35    1
    14    35    36    1
    15    35    37    1
    16    35    38    1
    17    33    34   ar
    18     5     6   ar
    19     6     7   ar
    20     7     8    1
    21     8     9    2
    22     9    10    1
    23    10    11    2
    24    11    12    1
    25    12    17    1
    26    17    18   ar
    27    18    19   ar
    28    19    20   ar
    29    20    22    1
    30    22    23    1
    31    23    24    1
    32    20    21   ar
    33    12    13    2
    34    13    14    1
    35    14    15    2
    36    15    16    1
    37     7     2   ar
    38    16     8    1
    39    34    29   ar
    40    15    11    1
    41    21    17   ar
    42    24    22    1
    43    27    28    1
@<TRIPOS>MOLECULE
*****
 38 43 0 0 0
SMALL
GASTEIGER

@<TRIPOS>ATOM
      1 C         143.7651  139.7846  159.4953 C.3     1  UNL1        0.0310
      2 C         143.3028  139.8058  160.9222 C.ar    1  UNL1       -0.0221
      3 C         144.1940  139.2784  162.0072 C.ar    1  UNL1       -0.0041
      4 C         143.7317  139.2996  163.4341 C.ar    1  UNL1        0.0042
      5 C         142.3781  139.8484  163.7758 C.ar    1  UNL1        0.0536
      6 C         141.4869  140.3759  162.6907 C.ar    1  UNL1        0.0039
      7 C         141.9492  140.3546  161.2639 C.ar    1  UNL1       -0.0074
      8 C         141.0580  140.8821  160.1787 C.2     1  UNL1       -0.0164
      9 C         141.2103  142.2971  159.7047 C.2     1  UNL1       -0.0038
     10 C         140.3190  142.8245  158.6196 C.2     1  UNL1        0.0025
     11 C         139.2756  141.9370  158.0085 C.2     1  UNL1        0.0351
     12 C         138.2603  142.1766  156.9306 C.2     1  UNL1        0.1070
     13 N         137.4805  140.9097  156.7384 N.2     1  UNL1       -0.1482
     14 N         138.0139  139.8871  157.6975 N.2     1  UNL1       -0.1520
     15 C         139.1233  140.5220  158.4825 C.2     1  UNL1        0.0864
     16 C         140.0145  139.9946  159.5676 C.3     1  UNL1        0.0739
     17 C         138.0599  143.4581  156.1771 C.ar    1  UNL1        0.0590
     18 C         136.9209  143.7678  155.2515 C.ar    1  UNL1        0.1232
     19 N         137.1205  145.1559  154.7194 N.ar    1  UNL1       -0.1677
     20 N         138.3827  145.7041  155.3161 N.ar    1  UNL1       -0.2513
     21 C         138.9634  144.6548  156.2170 C.ar    1  UNL1        0.0981
     22 C         138.9626  147.0631  155.0573 C.3     1  UNL1        0.1054
     23 C         138.9833  148.5389  155.3244 C.3     1  UNL1        0.0263
     24 C         139.9461  147.9410  154.3418 C.3     1  UNL1        0.0263
     25 C         141.9158  139.8697  165.2026 C.2     1  UNL1        0.2495
     26 O         140.6125  139.2292  165.5783 O.2     1  UNL1       -0.2698
     27 N         142.7568  140.5314  166.2537 N.am    1  UNL1       -0.2804
     28 H         143.6122  140.9517  166.0072 H       1  UNL1        0.1552
     29 C         142.2945  140.5526  167.6805 C.ar    1  UNL1        0.0505
     30 C         142.5626  139.3775  168.5734 C.ar    1  UNL1        0.0147
     31 C         142.1002  139.3989  170.0003 C.ar    1  UNL1        0.0012
     32 C         141.3698  140.5952  170.5342 C.ar    1  UNL1        0.0039
     33 C         141.1017  141.7703  169.6413 C.ar    1  UNL1        0.0726
     34 C         141.5640  141.7491  168.2145 C.ar    1  UNL1        0.0185
     35 C         140.3713  142.9667  170.1752 C.3     1  UNL1        0.4186
     36 F         139.6408  144.1632  170.7091 F       1  UNL1       -0.1659
     37 F         141.6040  143.8013  169.9915 F       1  UNL1       -0.1659
     38 F         139.1385  142.1321  170.3588 F       1  UNL1       -0.1659
@<TRIPOS>BOND
     1     1     2    1
     2     2     3   ar
     3     3     4   ar
     4     4     5   ar
     5     5    25    1
     6    25    26    2
     7    25    27   am
     8    27    29    1
     9    29    30   ar
    10    30    31   ar
    11    31    32   ar
    12    32    33   ar
    13    33    35    1
    14    35    36    1
    15    35    37    1
    16    35    38    1
    17    33    34   ar
    18     5     6   ar
    19     6     7   ar
    20     7     8    1
    21     8     9    2
    22     9    10    1
    23    10    11    2
    24    11    12    1
    25    12    17    1
    26    17    18   ar
    27    18    19   ar
    28    19    20   ar
    29    20    22    1
    30    22    23    1
    31    23    24    1
    32    20    21   ar
    33    12    13    2
    34    13    14    1
    35    14    15    2
    36    15    16    1
    37     7     2   ar
    38    16     8    1
    39    34    29   ar
    40    15    11    1
    41    21    17   ar
    42    24    22    1
    43    27    28    1
