@<TRIPOS>MOLECULE
*****
 29 32 0 0 0
SMALL
GASTEIGER

@<TRIPOS>ATOM
      1 C         142.3406  142.9940  165.2938 C.ar    1  UNL1        0.0906
      2 C         141.5389  142.5995  166.4986 C.ar    1  UNL1        0.1496
      3 O         140.1453  143.1248  166.3203 O.2     1  UNL1       -0.4534
      4 C         140.0856  143.8440  165.0053 C.ar    1  UNL1        0.1454
      5 C         138.9712  144.5619  164.3036 C.ar    1  UNL1        0.0406
      6 C         139.2135  145.1991  162.9675 C.ar    1  UNL1        0.0395
      7 C         140.5703  145.1182  162.3330 C.ar    1  UNL1        0.1311
      8 O         140.8126  145.7554  160.9968 O.3     1  UNL1       -0.5058
      9 C         141.6848  144.4002  163.0347 C.ar    1  UNL1        0.0308
     10 C         141.4424  143.7631  164.3708 C.ar    1  UNL1        0.0421
     11 H         140.1165  146.2039  160.5585 H       1  UNL1        0.2922
     12 C         142.0424  141.8171  167.6752 C.ar    1  UNL1        0.0349
     13 C         142.9327  142.4746  168.6876 C.ar    1  UNL1        0.0061
     14 C         143.4362  141.6923  169.8642 C.ar    1  UNL1        0.0367
     15 C         143.0495  140.2523  170.0284 C.ar    1  UNL1        0.1337
     16 O         143.5530  139.4699  171.2049 O.3     1  UNL1       -0.5055
     17 C         142.1592  139.5948  169.0160 C.ar    1  UNL1        0.0367
     18 C         141.6557  140.3772  167.8394 C.ar    1  UNL1        0.0061
     19 H         144.1091  139.8807  171.8373 H       1  UNL1        0.2922
     20 C         145.6112  141.1394  164.0233 C.3     1  UNL1        0.1109
     21 N         144.1652  141.4581  164.2632 N.am    1  UNL1       -0.2991
     22 C         143.7866  142.6753  165.0539 C.2     1  UNL1        0.2490
     23 O         144.8540  143.5736  165.6048 O.2     1  UNL1       -0.2700
     24 H         143.4646  140.8684  163.9016 H       1  UNL1        0.1498
     25 C         143.0416  144.3193  162.4003 C.3     1  UNL1        0.1023
     26 N         143.3987  143.1430  161.5408 N.3     1  UNL1       -0.2688
     27 C         144.6392  142.6842  160.8331 C.3     1  UNL1        0.0738
     28 C         143.9039  141.4794  160.3252 C.3     1  UNL1        0.0347
     29 C         142.6635  141.9382  161.0329 C.3     1  UNL1        0.0738
@<TRIPOS>BOND
     1    20    21    1
     2    21    22   am
     3    22    23    2
     4    22     1    1
     5     1     2   ar
     6     2    12    1
     7    12    13   ar
     8    13    14   ar
     9    14    15   ar
    10    15    16    1
    11    15    17   ar
    12    17    18   ar
    13     2     3   ar
    14     3     4   ar
    15     4     5   ar
    16     5     6   ar
    17     6     7   ar
    18     7     8    1
    19     7     9   ar
    20     9    25    1
    21    25    26    1
    22    26    27    1
    23    27    28    1
    24    28    29    1
    25     9    10   ar
    26    10     1   ar
    27    18    12   ar
    28    10     4   ar
    29    29    26    1
    30    21    24    1
    31    16    19    1
    32     8    11    1
@<TRIPOS>MOLECULE
*****
 29 32 0 0 0
SMALL
GASTEIGER

@<TRIPOS>ATOM
      1 C         140.8100  141.4838  165.3844 C.ar    1  UNL1        0.0906
      2 C         140.8404  142.0453  166.7750 C.ar    1  UNL1        0.1496
      3 O         140.0031  143.2897  166.7907 O.2     1  UNL1       -0.4534
      4 C         139.4552  143.4973  165.4098 C.ar    1  UNL1        0.1454
      5 C         138.5667  144.5585  164.8316 C.ar    1  UNL1        0.0406
      6 C         138.1769  144.5036  163.3842 C.ar    1  UNL1        0.0395
      7 C         138.6757  143.3874  162.5150 C.ar    1  UNL1        0.1311
      8 O         138.2858  143.3325  161.0676 O.3     1  UNL1       -0.5058
      9 C         139.5642  142.3262  163.0933 C.ar    1  UNL1        0.0308
     10 C         139.9540  142.3812  164.5406 C.ar    1  UNL1        0.0421
     11 H         137.7308  143.9954  160.7064 H       1  UNL1        0.2922
     12 C         141.5784  141.4643  167.9445 C.ar    1  UNL1        0.0349
     13 C         142.7096  142.2249  168.5704 C.ar    1  UNL1        0.0061
     14 C         143.4476  141.6440  169.7399 C.ar    1  UNL1        0.0367
     15 C         143.0545  140.3024  170.2835 C.ar    1  UNL1        0.1337
     16 O         143.7926  139.7214  171.4530 O.3     1  UNL1       -0.5055
     17 C         141.9234  139.5417  169.6576 C.ar    1  UNL1        0.0367
     18 C         141.1853  140.1227  168.4881 C.ar    1  UNL1        0.0061
     19 H         144.4992  140.1966  171.8441 H       1  UNL1        0.2922
     20 C         141.5055  137.6803  164.4896 C.3     1  UNL1        0.1109
     21 N         140.8032  138.9214  164.9549 N.am    1  UNL1       -0.2991
     22 C         141.5124  140.2427  164.9191 C.2     1  UNL1        0.2490
     23 O         142.9239  140.3229  164.4181 O.2     1  UNL1       -0.2700
     24 H         139.8767  138.8687  165.2837 H       1  UNL1        0.1498
     25 C         140.0629  141.2101  162.2241 C.3     1  UNL1        0.1023
     26 N         139.3059  139.9170  162.1559 N.3     1  UNL1       -0.2688
     27 C         138.0305  139.4017  162.7543 C.3     1  UNL1        0.0738
     28 C         138.2351  138.0881  162.0595 C.3     1  UNL1        0.0347
     29 C         139.5105  138.6034  161.4611 C.3     1  UNL1        0.0738
@<TRIPOS>BOND
     1    20    21    1
     2    21    22   am
     3    22    23    2
     4    22     1    1
     5     1     2   ar
     6     2    12    1
     7    12    13   ar
     8    13    14   ar
     9    14    15   ar
    10    15    16    1
    11    15    17   ar
    12    17    18   ar
    13     2     3   ar
    14     3     4   ar
    15     4     5   ar
    16     5     6   ar
    17     6     7   ar
    18     7     8    1
    19     7     9   ar
    20     9    25    1
    21    25    26    1
    22    26    27    1
    23    27    28    1
    24    28    29    1
    25     9    10   ar
    26    10     1   ar
    27    18    12   ar
    28    10     4   ar
    29    29    26    1
    30    21    24    1
    31    16    19    1
    32     8    11    1
@<TRIPOS>MOLECULE
*****
 29 32 0 0 0
SMALL
GASTEIGER

@<TRIPOS>ATOM
      1 C         141.2378  140.7971  163.6736 C.ar    1  UNL1        0.0906
      2 C         141.2761  139.9132  164.8850 C.ar    1  UNL1        0.1496
      3 O         142.7086  139.7624  165.3035 O.2     1  UNL1       -0.4534
      4 C         143.5556  140.5530  164.3509 C.ar    1  UNL1        0.1454
      5 C         145.0371  140.7733  164.2705 C.ar    1  UNL1        0.0406
      6 C         145.6096  141.6330  163.1828 C.ar    1  UNL1        0.0395
      7 C         144.7006  142.2725  162.1755 C.ar    1  UNL1        0.1311
      8 O         145.2731  143.1323  161.0878 O.3     1  UNL1       -0.5058
      9 C         143.2190  142.0522  162.2559 C.ar    1  UNL1        0.0308
     10 C         142.6466  141.1925  163.3435 C.ar    1  UNL1        0.0421
     11 H         146.1986  143.2698  161.0376 H       1  UNL1        0.2922
     12 C         140.0902  139.2897  165.5593 C.ar    1  UNL1        0.0349
     13 C         139.4843  139.9429  166.7660 C.ar    1  UNL1        0.0061
     14 C         138.2983  139.3194  167.4404 C.ar    1  UNL1        0.0367
     15 C         137.7183  138.0426  166.9081 C.ar    1  UNL1        0.1337
     16 O         136.5324  137.4191  167.5825 O.3     1  UNL1       -0.5055
     17 C         138.3243  137.3894  165.7014 C.ar    1  UNL1        0.0367
     18 C         139.5102  138.0129  165.0271 C.ar    1  UNL1        0.0061
     19 H         136.1539  137.8272  168.3363 H       1  UNL1        0.2922
     20 C         137.9629  142.7938  162.6545 C.3     1  UNL1        0.1109
     21 N         139.1939  142.3783  163.4042 N.am    1  UNL1       -0.2991
     22 C         140.0068  141.2126  162.9240 C.2     1  UNL1        0.2490
     23 O         139.5886  140.4626  161.6942 O.2     1  UNL1       -0.2700
     24 H         139.4683  142.8706  164.2114 H       1  UNL1        0.1498
     25 C         142.3100  142.6917  161.2485 C.3     1  UNL1        0.1023
     26 N         141.5743  143.9520  161.5956 N.3     1  UNL1       -0.2688
     27 C         140.5479  144.8041  160.9098 C.3     1  UNL1        0.0738
     28 C         140.5339  145.7343  162.0865 C.3     1  UNL1        0.0347
     29 C         141.5603  144.8822  162.7723 C.3     1  UNL1        0.0738
@<TRIPOS>BOND
     1    20    21    1
     2    21    22   am
     3    22    23    2
     4    22     1    1
     5     1     2   ar
     6     2    12    1
     7    12    13   ar
     8    13    14   ar
     9    14    15   ar
    10    15    16    1
    11    15    17   ar
    12    17    18   ar
    13     2     3   ar
    14     3     4   ar
    15     4     5   ar
    16     5     6   ar
    17     6     7   ar
    18     7     8    1
    19     7     9   ar
    20     9    25    1
    21    25    26    1
    22    26    27    1
    23    27    28    1
    24    28    29    1
    25     9    10   ar
    26    10     1   ar
    27    18    12   ar
    28    10     4   ar
    29    29    26    1
    30    21    24    1
    31    16    19    1
    32     8    11    1
@<TRIPOS>MOLECULE
*****
 29 32 0 0 0
SMALL
GASTEIGER

@<TRIPOS>ATOM
      1 C         140.2337  141.5633  165.5797 C.ar    1  UNL1        0.0906
      2 C         140.7330  140.9783  166.8675 C.ar    1  UNL1        0.1496
      3 O         140.4689  139.5020  166.8392 O.2     1  UNL1       -0.4534
      4 C         139.8064  139.1746  165.5339 C.ar    1  UNL1        0.1454
      5 C         139.3167  137.8810  164.9535 C.ar    1  UNL1        0.0406
      6 C         138.6817  137.8614  163.5947 C.ar    1  UNL1        0.0395
      7 C         138.5363  139.1354  162.8163 C.ar    1  UNL1        0.1311
      8 O         137.9013  139.1157  161.4575 O.3     1  UNL1       -0.5058
      9 C         139.0260  140.4289  163.3967 C.ar    1  UNL1        0.0308
     10 C         139.6610  140.4486  164.7554 C.ar    1  UNL1        0.0421
     11 H         137.5954  138.3076  161.0949 H       1  UNL1        0.2922
     12 C         141.3824  141.7365  167.9871 C.ar    1  UNL1        0.0349
     13 C         140.5745  142.6940  168.8121 C.ar    1  UNL1        0.0061
     14 C         141.2239  143.4522  169.9317 C.ar    1  UNL1        0.0367
     15 C         142.6811  143.2529  170.2263 C.ar    1  UNL1        0.1337
     16 O         143.3304  144.0111  171.3459 O.3     1  UNL1       -0.5055
     17 C         143.4889  142.2954  169.4014 C.ar    1  UNL1        0.0367
     18 C         142.8395  141.5372  168.2818 C.ar    1  UNL1        0.0061
     19 H         142.8258  144.6092  171.8612 H       1  UNL1        0.2922
     20 C         141.4829  144.9498  163.9300 C.3     1  UNL1        0.1109
     21 N         141.4205  143.5039  164.3244 N.am    1  UNL1       -0.2991
     22 C         140.2961  143.0092  165.1854 C.2     1  UNL1        0.2490
     23 O         139.2343  143.9604  165.6519 O.2     1  UNL1       -0.2700
     24 H         142.1174  142.8796  164.0181 H       1  UNL1        0.1498
     25 C         138.8806  141.7029  162.6183 C.3     1  UNL1        0.1023
     26 N         139.9789  142.1500  161.6996 N.3     1  UNL1       -0.2688
     27 C         140.1925  143.3287  160.7968 C.3     1  UNL1        0.0738
     28 C         141.5321  142.7823  160.4003 C.3     1  UNL1        0.0347
     29 C         141.3184  141.6036  161.3031 C.3     1  UNL1        0.0738
@<TRIPOS>BOND
     1    20    21    1
     2    21    22   am
     3    22    23    2
     4    22     1    1
     5     1     2   ar
     6     2    12    1
     7    12    13   ar
     8    13    14   ar
     9    14    15   ar
    10    15    16    1
    11    15    17   ar
    12    17    18   ar
    13     2     3   ar
    14     3     4   ar
    15     4     5   ar
    16     5     6   ar
    17     6     7   ar
    18     7     8    1
    19     7     9   ar
    20     9    25    1
    21    25    26    1
    22    26    27    1
    23    27    28    1
    24    28    29    1
    25     9    10   ar
    26    10     1   ar
    27    18    12   ar
    28    10     4   ar
    29    29    26    1
    30    21    24    1
    31    16    19    1
    32     8    11    1
@<TRIPOS>MOLECULE
*****
 29 32 0 0 0
SMALL
GASTEIGER

@<TRIPOS>ATOM
      1 C         141.3755  140.6081  165.6506 C.ar    1  UNL1        0.0906
      2 C         140.9795  140.6180  167.0973 C.ar    1  UNL1        0.1496
      3 O         139.8904  139.6041  167.2867 O.2     1  UNL1       -0.4534
      4 C         139.6133  138.9676  165.9570 C.ar    1  UNL1        0.1454
      5 C         138.6437  137.9032  165.5364 C.ar    1  UNL1        0.0406
      6 C         138.5921  137.4593  164.1045 C.ar    1  UNL1        0.0395
      7 C         139.5099  138.0798  163.0933 C.ar    1  UNL1        0.1311
      8 O         139.4582  137.6358  161.6614 O.3     1  UNL1       -0.5058
      9 C         140.4795  139.1442  163.5140 C.ar    1  UNL1        0.0308
     10 C         140.5311  139.5881  164.9458 C.ar    1  UNL1        0.0421
     11 H         138.8526  136.9709  161.3986 H       1  UNL1        0.2922
     12 C         141.5691  141.4889  168.1669 C.ar    1  UNL1        0.0349
     13 C         140.7351  142.5583  168.8078 C.ar    1  UNL1        0.0061
     14 C         141.3247  143.4291  169.8773 C.ar    1  UNL1        0.0367
     15 C         142.7483  143.2306  170.3061 C.ar    1  UNL1        0.1337
     16 O         143.3379  144.1014  171.3756 O.3     1  UNL1       -0.5055
     17 C         143.5823  142.1612  169.6652 C.ar    1  UNL1        0.0367
     18 C         142.9927  141.2903  168.5956 C.ar    1  UNL1        0.0061
     19 H         142.8169  144.7695  171.7760 H       1  UNL1        0.2922
     20 C         144.8993  141.8330  164.2968 C.3     1  UNL1        0.1109
     21 N         143.8442  140.9737  164.9280 N.am    1  UNL1       -0.2991
     22 C         142.4306  141.4674  165.0194 C.2     1  UNL1        0.2490
     23 O         142.0723  142.8201  164.4795 O.2     1  UNL1       -0.2700
     24 H         144.0794  140.0859  165.2824 H       1  UNL1        0.1498
     25 C         141.3973  139.7647  162.5028 C.3     1  UNL1        0.1023
     26 N         142.4951  138.9494  161.8864 N.3     1  UNL1       -0.2688
     27 C         142.7219  138.3176  160.5450 C.3     1  UNL1        0.0738
     28 C         144.0477  137.7963  161.0146 C.3     1  UNL1        0.0347
     29 C         143.8209  138.4281  162.3560 C.3     1  UNL1        0.0738
@<TRIPOS>BOND
     1    20    21    1
     2    21    22   am
     3    22    23    2
     4    22     1    1
     5     1     2   ar
     6     2    12    1
     7    12    13   ar
     8    13    14   ar
     9    14    15   ar
    10    15    16    1
    11    15    17   ar
    12    17    18   ar
    13     2     3   ar
    14     3     4   ar
    15     4     5   ar
    16     5     6   ar
    17     6     7   ar
    18     7     8    1
    19     7     9   ar
    20     9    25    1
    21    25    26    1
    22    26    27    1
    23    27    28    1
    24    28    29    1
    25     9    10   ar
    26    10     1   ar
    27    18    12   ar
    28    10     4   ar
    29    29    26    1
    30    21    24    1
    31    16    19    1
    32     8    11    1
@<TRIPOS>MOLECULE
*****
 29 32 0 0 0
SMALL
GASTEIGER

@<TRIPOS>ATOM
      1 C         141.1121  140.4961  165.1314 C.ar    1  UNL1        0.0906
      2 C         140.5494  139.5847  166.1814 C.ar    1  UNL1        0.1496
      3 O         139.9457  138.3983  165.4902 O.2     1  UNL1       -0.4534
      4 C         140.1352  138.5764  164.0129 C.ar    1  UNL1        0.1454
      5 C         139.7445  137.7255  162.8411 C.ar    1  UNL1        0.0406
      6 C         140.0747  138.1712  161.4474 C.ar    1  UNL1        0.0395
      7 C         140.7956  139.4678  161.2256 C.ar    1  UNL1        0.1311
      8 O         141.1258  139.9135  159.8319 O.3     1  UNL1       -0.5058
      9 C         141.1863  140.3187  162.3975 C.ar    1  UNL1        0.0308
     10 C         140.8561  139.8730  163.7911 C.ar    1  UNL1        0.0421
     11 H         140.8817  139.3819  159.0999 H       1  UNL1        0.2922
     12 C         140.5843  139.8187  167.6627 C.ar    1  UNL1        0.0349
     13 C         141.8834  139.7237  168.4065 C.ar    1  UNL1        0.0061
     14 C         141.9183  139.9576  169.8878 C.ar    1  UNL1        0.0367
     15 C         140.6542  140.2865  170.6251 C.ar    1  UNL1        0.1337
     16 O         140.6891  140.5205  172.1064 O.3     1  UNL1       -0.5055
     17 C         139.3551  140.3815  169.8813 C.ar    1  UNL1        0.0367
     18 C         139.3202  140.1476  168.4000 C.ar    1  UNL1        0.0061
     19 H         141.5006  140.4611  172.5710 H       1  UNL1        0.2922
     20 C         143.9762  143.1287  165.9168 C.3     1  UNL1        0.1109
     21 N         143.2797  141.8233  165.6700 N.am    1  UNL1       -0.2991
     22 C         141.8085  141.8016  165.3781 C.2     1  UNL1        0.2490
     23 O         141.0338  143.0852  165.3331 O.2     1  UNL1       -0.2700
     24 H         143.7882  140.9808  165.6996 H       1  UNL1        0.1498
     25 C         141.9072  141.6153  162.1757 C.3     1  UNL1        0.1023
     26 N         143.3941  141.6877  162.3596 N.3     1  UNL1       -0.2688
     27 C         144.4127  142.7887  162.3418 C.3     1  UNL1        0.0738
     28 C         145.4970  141.7901  162.6197 C.3     1  UNL1        0.0347
     29 C         144.4784  140.6891  162.6374 C.3     1  UNL1        0.0738
@<TRIPOS>BOND
     1    20    21    1
     2    21    22   am
     3    22    23    2
     4    22     1    1
     5     1     2   ar
     6     2    12    1
     7    12    13   ar
     8    13    14   ar
     9    14    15   ar
    10    15    16    1
    11    15    17   ar
    12    17    18   ar
    13     2     3   ar
    14     3     4   ar
    15     4     5   ar
    16     5     6   ar
    17     6     7   ar
    18     7     8    1
    19     7     9   ar
    20     9    25    1
    21    25    26    1
    22    26    27    1
    23    27    28    1
    24    28    29    1
    25     9    10   ar
    26    10     1   ar
    27    18    12   ar
    28    10     4   ar
    29    29    26    1
    30    21    24    1
    31    16    19    1
    32     8    11    1
@<TRIPOS>MOLECULE
*****
 29 32 0 0 0
SMALL
GASTEIGER

@<TRIPOS>ATOM
      1 C         140.8356  141.0201  165.3653 C.ar    1  UNL1        0.0906
      2 C         141.4715  141.0291  166.7238 C.ar    1  UNL1        0.1496
      3 O         142.8196  140.3816  166.6088 O.2     1  UNL1       -0.4534
      4 C         143.0169  139.9724  165.1792 C.ar    1  UNL1        0.1454
      5 C         144.1546  139.2914  164.4780 C.ar    1  UNL1        0.0406
      6 C         144.0662  139.0051  163.0083 C.ar    1  UNL1        0.0395
      7 C         142.8399  139.3998  162.2398 C.ar    1  UNL1        0.1311
      8 O         142.7515  139.1134  160.7700 O.3     1  UNL1       -0.5058
      9 C         141.7022  140.0807  162.9410 C.ar    1  UNL1        0.0308
     10 C         141.7907  140.3671  164.4107 C.ar    1  UNL1        0.0421
     11 H         143.4623  138.6881  160.3319 H       1  UNL1        0.2922
     12 C         140.8657  141.5876  167.9772 C.ar    1  UNL1        0.0349
     13 C         141.0458  143.0377  168.3158 C.ar    1  UNL1        0.0061
     14 C         140.4400  143.5962  169.5692 C.ar    1  UNL1        0.0367
     15 C         139.6540  142.7046  170.4841 C.ar    1  UNL1        0.1337
     16 O         139.0482  143.2630  171.7375 O.3     1  UNL1       -0.5055
     17 C         139.4738  141.2544  170.1456 C.ar    1  UNL1        0.0367
     18 C         140.0797  140.6960  168.8922 C.ar    1  UNL1        0.0061
     19 H         139.1607  144.1689  171.9490 H       1  UNL1        0.2922
     20 C         137.9811  143.5545  164.2793 C.3     1  UNL1        0.1109
     21 N         139.3345  143.0066  164.6229 N.am    1  UNL1       -0.2991
     22 C         139.4821  141.5681  165.0217 C.2     1  UNL1        0.2490
     23 O         138.2764  140.6776  165.0769 O.2     1  UNL1       -0.2700
     24 H         140.1259  143.5911  164.5866 H       1  UNL1        0.1498
     25 C         140.4760  140.4754  162.1725 C.3     1  UNL1        0.1023
     26 N         139.3545  139.4953  161.9946 N.3     1  UNL1       -0.2688
     27 C         139.2368  138.0003  162.0301 C.3     1  UNL1        0.0738
     28 C         137.7685  138.1090  161.7431 C.3     1  UNL1        0.0347
     29 C         137.8862  139.6040  161.7077 C.3     1  UNL1        0.0738
@<TRIPOS>BOND
     1    20    21    1
     2    21    22   am
     3    22    23    2
     4    22     1    1
     5     1     2   ar
     6     2    12    1
     7    12    13   ar
     8    13    14   ar
     9    14    15   ar
    10    15    16    1
    11    15    17   ar
    12    17    18   ar
    13     2     3   ar
    14     3     4   ar
    15     4     5   ar
    16     5     6   ar
    17     6     7   ar
    18     7     8    1
    19     7     9   ar
    20     9    25    1
    21    25    26    1
    22    26    27    1
    23    27    28    1
    24    28    29    1
    25     9    10   ar
    26    10     1   ar
    27    18    12   ar
    28    10     4   ar
    29    29    26    1
    30    21    24    1
    31    16    19    1
    32     8    11    1
@<TRIPOS>MOLECULE
*****
 29 32 0 0 0
SMALL
GASTEIGER

@<TRIPOS>ATOM
      1 C         140.4901  140.5769  164.9177 C.ar    1  UNL1        0.0906
      2 C         140.3901  139.6090  166.0594 C.ar    1  UNL1        0.1496
      3 O         139.8050  138.3316  165.5341 O.2     1  UNL1       -0.4534
      4 C         139.5434  138.5100  164.0679 C.ar    1  UNL1        0.1454
      5 C         138.9743  137.5881  163.0305 C.ar    1  UNL1        0.0406
      6 C         138.8287  138.0539  161.6122 C.ar    1  UNL1        0.0395
      7 C         139.2521  139.4415  161.2312 C.ar    1  UNL1        0.1311
      8 O         139.1064  139.9073  159.8128 O.3     1  UNL1       -0.5058
      9 C         139.8211  140.3634  162.2686 C.ar    1  UNL1        0.0308
     10 C         139.9668  139.8976  163.6870 C.ar    1  UNL1        0.0421
     11 H         138.7509  139.3314  159.1647 H       1  UNL1        0.2922
     12 C         140.8027  139.8724  167.4772 C.ar    1  UNL1        0.0349
     13 C         142.2579  139.9313  167.8362 C.ar    1  UNL1        0.0061
     14 C         142.6706  140.1946  169.2541 C.ar    1  UNL1        0.0367
     15 C         141.6281  140.3991  170.3130 C.ar    1  UNL1        0.1337
     16 O         142.0407  140.6624  171.7309 O.3     1  UNL1       -0.5055
     17 C         140.1729  140.3401  169.9540 C.ar    1  UNL1        0.0367
     18 C         139.7602  140.0768  168.5361 C.ar    1  UNL1        0.0061
     19 H         142.9497  140.6992  171.9551 H       1  UNL1        0.2922
     20 C         142.9088  143.6979  164.5185 C.3     1  UNL1        0.1109
     21 N         142.3786  142.2968  164.4427 N.am    1  UNL1       -0.2991
     22 C         141.0202  141.9780  164.9936 C.2     1  UNL1        0.2490
     23 O         140.1922  143.0604  165.6201 O.2     1  UNL1       -0.2700
     24 H         142.9222  141.5863  164.0315 H       1  UNL1        0.1498
     25 C         140.2445  141.7511  161.8877 C.3     1  UNL1        0.1023
     26 N         139.4133  142.9290  162.3016 N.3     1  UNL1       -0.2688
     27 C         139.6412  144.4089  162.3915 C.3     1  UNL1        0.0738
     28 C         138.2376  144.5951  162.8869 C.3     1  UNL1        0.0347
     29 C         138.0097  143.1152  162.7970 C.3     1  UNL1        0.0738
@<TRIPOS>BOND
     1    20    21    1
     2    21    22   am
     3    22    23    2
     4    22     1    1
     5     1     2   ar
     6     2    12    1
     7    12    13   ar
     8    13    14   ar
     9    14    15   ar
    10    15    16    1
    11    15    17   ar
    12    17    18   ar
    13     2     3   ar
    14     3     4   ar
    15     4     5   ar
    16     5     6   ar
    17     6     7   ar
    18     7     8    1
    19     7     9   ar
    20     9    25    1
    21    25    26    1
    22    26    27    1
    23    27    28    1
    24    28    29    1
    25     9    10   ar
    26    10     1   ar
    27    18    12   ar
    28    10     4   ar
    29    29    26    1
    30    21    24    1
    31    16    19    1
    32     8    11    1
@<TRIPOS>MOLECULE
*****
 29 32 0 0 0
SMALL
GASTEIGER

@<TRIPOS>ATOM
      1 C         142.1945  140.8816  165.5726 C.ar    1  UNL1        0.0906
      2 C         142.7065  141.7590  166.6763 C.ar    1  UNL1        0.1496
      3 O         143.9046  142.5001  166.1612 O.2     1  UNL1       -0.4534
      4 C         144.1331  142.0807  164.7392 C.ar    1  UNL1        0.1454
      5 C         145.1669  142.4804  163.7286 C.ar    1  UNL1        0.0406
      6 C         145.1438  141.8799  162.3543 C.ar    1  UNL1        0.0395
      7 C         144.0869  140.8796  161.9906 C.ar    1  UNL1        0.1311
      8 O         144.0638  140.2791  160.6162 O.3     1  UNL1       -0.5058
      9 C         143.0530  140.4799  163.0011 C.ar    1  UNL1        0.0308
     10 C         143.0761  141.0805  164.3754 C.ar    1  UNL1        0.0421
     11 H         144.7097  140.5288  159.9849 H       1  UNL1        0.2922
     12 C         142.1229  141.8750  168.0532 C.ar    1  UNL1        0.0349
     13 C         140.9601  142.7896  168.3004 C.ar    1  UNL1        0.0061
     14 C         140.3765  142.9056  169.6773 C.ar    1  UNL1        0.0367
     15 C         140.9558  142.1069  170.8071 C.ar    1  UNL1        0.1337
     16 O         140.3722  142.2228  172.1840 O.3     1  UNL1       -0.5055
     17 C         142.1186  141.1922  170.5599 C.ar    1  UNL1        0.0367
     18 C         142.7022  141.0762  169.1830 C.ar    1  UNL1        0.0061
     19 H         139.6458  142.7942  172.3384 H       1  UNL1        0.2922
     20 C         138.4350  139.6187  165.7200 C.3     1  UNL1        0.1109
     21 N         139.6206  140.5342  165.6405 N.am    1  UNL1       -0.2991
     22 C         141.0089  139.9662  165.6521 C.2     1  UNL1        0.2490
     23 O         141.2115  138.4828  165.7433 O.2     1  UNL1       -0.2700
     24 H         139.4875  141.5078  165.5807 H       1  UNL1        0.1498
     25 C         141.9960  139.4797  162.6374 C.3     1  UNL1        0.1023
     26 N         141.0774  139.7459  161.4820 N.3     1  UNL1       -0.2688
     27 C         140.3336  138.8907  160.4993 C.3     1  UNL1        0.0738
     28 C         139.7781  140.1224  159.8478 C.3     1  UNL1        0.0347
     29 C         140.5218  140.9775  160.8304 C.3     1  UNL1        0.0738
@<TRIPOS>BOND
     1    20    21    1
     2    21    22   am
     3    22    23    2
     4    22     1    1
     5     1     2   ar
     6     2    12    1
     7    12    13   ar
     8    13    14   ar
     9    14    15   ar
    10    15    16    1
    11    15    17   ar
    12    17    18   ar
    13     2     3   ar
    14     3     4   ar
    15     4     5   ar
    16     5     6   ar
    17     6     7   ar
    18     7     8    1
    19     7     9   ar
    20     9    25    1
    21    25    26    1
    22    26    27    1
    23    27    28    1
    24    28    29    1
    25     9    10   ar
    26    10     1   ar
    27    18    12   ar
    28    10     4   ar
    29    29    26    1
    30    21    24    1
    31    16    19    1
    32     8    11    1
