@<TRIPOS>MOLECULE
*****
 31 33 0 0 0
SMALL
GASTEIGER

@<TRIPOS>ATOM
      1 C         140.2099  140.5118  167.4105 C.ar    1  UNL1        0.0332
      2 C         140.5885  140.4214  165.9618 C.ar    1  UNL1        0.0148
      3 C         139.7343  139.6362  165.0110 C.ar    1  UNL1        0.0505
      4 C         138.5017  138.9415  165.5088 C.ar    1  UNL1        0.0170
      5 C         138.1231  139.0319  166.9574 C.ar    1  UNL1        0.0307
      6 C         138.9772  139.8170  167.9082 C.ar    1  UNL1        0.1383
      7 F         138.5987  139.9074  169.3569 F       1  UNL1       -0.2044
      8 C         142.9305  138.2906  170.1579 C.3     1  UNL1        0.0723
      9 C         142.5101  139.6842  169.7958 C.2     1  UNL1        0.1243
     10 C         141.4845  139.9034  168.7233 C.2     1  UNL1        0.0357
     11 C         141.0640  141.2969  168.3612 C.3     1  UNL1        0.1633
     12 N         141.6691  142.4713  169.0716 N.2     1  UNL1       -0.2168
     13 C         142.6947  142.2522  170.1440 C.2     1  UNL1        0.2815
     14 N         143.2998  143.4266  170.8544 N.pl3   1  UNL1       -0.3130
     15 O         143.1151  140.8586  170.5061 O.2     1  UNL1       -0.4305
     16 H         143.0238  144.3413  170.6167 H       1  UNL1        0.1466
     17 H         143.9729  143.2827  171.5583 H       1  UNL1        0.1466
     18 C         140.3469  142.4178  167.6689 C.3     1  UNL1        0.2240
     19 F         140.0760  143.6995  168.3996 F       1  UNL1       -0.2315
     20 N         140.1129  139.5459  163.5623 N.am    1  UNL1       -0.2791
     21 C         140.9094  138.3754  163.0669 C.2     1  UNL1        0.2672
     22 O         141.3274  137.2952  164.0201 O.2     1  UNL1       -0.2682
     23 H         139.8386  140.2548  162.9367 H       1  UNL1        0.1552
     24 C         141.2880  138.2850  161.6183 C.ar    1  UNL1        0.1348
     25 C         142.6473  137.7849  161.2282 C.ar    1  UNL1        0.0245
     26 C         143.0258  137.6945  159.7795 C.ar    1  UNL1        0.0135
     27 C         142.0451  138.1042  158.7211 C.ar    1  UNL1        0.0876
     28 C         140.6858  138.6044  159.1112 C.ar    1  UNL1        0.1092
     29 N         140.3073  138.6948  160.5599 N.ar    1  UNL1       -0.2385
     30 C         142.4237  138.0138  157.2724 C.1     1  UNL1        0.1020
     31 N         142.8022  137.9235  155.8237 N.1     1  UNL1       -0.1908
@<TRIPOS>BOND
     1     8     9    1
     2     9    10    2
     3    10    11    1
     4    11    18    1
     5    18    19    1
     6    11     1    1
     7     1     2   ar
     8     2     3   ar
     9     3    20    1
    10    20    21   am
    11    21    22    2
    12    21    24    1
    13    24    25   ar
    14    25    26   ar
    15    26    27   ar
    16    27    30    1
    17    30    31    3
    18    27    28   ar
    19    28    29   ar
    20     3     4   ar
    21     4     5   ar
    22     5     6   ar
    23     6     7    1
    24    11    12    1
    25    12    13    2
    26    13    14    1
    27    13    15    1
    28    15     9    1
    29     6     1   ar
    30    29    24   ar
    31    20    23    1
    32    14    16    1
    33    14    17    1
@<TRIPOS>MOLECULE
*****
 31 33 0 0 0
SMALL
GASTEIGER

@<TRIPOS>ATOM
      1 C         142.1245  140.2008  167.4786 C.ar    1  UNL1        0.0332
      2 C         142.1589  140.5848  166.0290 C.ar    1  UNL1        0.0148
      3 C         142.8893  139.7231  165.0420 C.ar    1  UNL1        0.0505
      4 C         143.5853  138.4775  165.5045 C.ar    1  UNL1        0.0170
      5 C         143.5509  138.0935  166.9542 C.ar    1  UNL1        0.0307
      6 C         142.8205  138.9551  167.9411 C.ar    1  UNL1        0.1383
      7 F         142.7861  138.5711  169.3908 F       1  UNL1       -0.2044
      8 C         144.4979  142.9316  170.0850 C.3     1  UNL1        0.0723
      9 C         143.0858  142.5126  169.8017 C.2     1  UNL1        0.1243
     10 C         142.8063  141.4814  168.7489 C.2     1  UNL1        0.0357
     11 C         141.3941  141.0624  168.4656 C.3     1  UNL1        0.1633
     12 N         140.2615  141.6746  169.2351 N.2     1  UNL1       -0.2168
     13 C         140.5409  142.7058  170.2879 C.2     1  UNL1        0.2815
     14 N         139.4082  143.3181  171.0575 N.pl3   1  UNL1       -0.3130
     15 O         141.9531  143.1248  170.5712 O.2     1  UNL1       -0.4305
     16 H         138.4814  143.0431  170.8716 H       1  UNL1        0.1466
     17 H         139.5916  143.9949  171.7485 H       1  UNL1        0.1466
     18 C         140.2357  140.3441  167.8394 C.3     1  UNL1        0.2240
     19 F         139.0045  140.0592  168.6476 F       1  UNL1       -0.2315
     20 N         142.9237  140.1072  163.5924 N.am    1  UNL1       -0.2791
     21 C         144.2027  140.5887  162.9742 C.2     1  UNL1        0.2672
     22 O         145.4474  140.6862  163.8056 O.2     1  UNL1       -0.2682
     23 H         142.1067  140.0432  163.0467 H       1  UNL1        0.1552
     24 C         144.2371  140.9727  161.5245 C.ar    1  UNL1        0.1348
     25 C         143.7789  139.9989  160.4797 C.ar    1  UNL1        0.0245
     26 C         143.8133  140.3829  159.0301 C.ar    1  UNL1        0.0135
     27 C         144.3059  141.7407  158.6254 C.ar    1  UNL1        0.0876
     28 C         144.7641  142.7145  159.6702 C.ar    1  UNL1        0.1092
     29 N         144.7297  142.3305  161.1199 N.ar    1  UNL1       -0.2385
     30 C         144.3403  142.1247  157.1758 C.1     1  UNL1        0.1020
     31 N         144.3746  142.5087  155.7261 N.1     1  UNL1       -0.1908
@<TRIPOS>BOND
     1     8     9    1
     2     9    10    2
     3    10    11    1
     4    11    18    1
     5    18    19    1
     6    11     1    1
     7     1     2   ar
     8     2     3   ar
     9     3    20    1
    10    20    21   am
    11    21    22    2
    12    21    24    1
    13    24    25   ar
    14    25    26   ar
    15    26    27   ar
    16    27    30    1
    17    30    31    3
    18    27    28   ar
    19    28    29   ar
    20     3     4   ar
    21     4     5   ar
    22     5     6   ar
    23     6     7    1
    24    11    12    1
    25    12    13    2
    26    13    14    1
    27    13    15    1
    28    15     9    1
    29     6     1   ar
    30    29    24   ar
    31    20    23    1
    32    14    16    1
    33    14    17    1
@<TRIPOS>MOLECULE
*****
 31 33 0 0 0
SMALL
GASTEIGER

@<TRIPOS>ATOM
      1 C         141.6180  141.7716  166.8199 C.ar    1  UNL1        0.0332
      2 C         141.1460  141.9314  165.4050 C.ar    1  UNL1        0.0148
      3 C         142.0724  142.4851  164.3634 C.ar    1  UNL1        0.0505
      4 C         143.4709  142.8791  164.7364 C.ar    1  UNL1        0.0170
      5 C         143.9429  142.7193  166.1513 C.ar    1  UNL1        0.0307
      6 C         143.0164  142.1655  167.1929 C.ar    1  UNL1        0.1383
      7 F         143.4884  142.0058  168.6078 F       1  UNL1       -0.2044
      8 C         140.3628  144.4238  170.1776 C.3     1  UNL1        0.0723
      9 C         140.1796  143.0317  169.6498 C.2     1  UNL1        0.1243
     10 C         140.8747  142.6100  168.3893 C.2     1  UNL1        0.0357
     11 C         140.6915  141.2179  167.8615 C.3     1  UNL1        0.1633
     12 N         139.8132  140.2475  168.5942 N.2     1  UNL1       -0.2168
     13 C         139.1181  140.6693  169.8547 C.2     1  UNL1        0.2815
     14 N         138.2397  139.6989  170.5875 N.pl3   1  UNL1       -0.3130
     15 O         139.3013  142.0613  170.3825 O.2     1  UNL1       -0.4305
     16 H         138.1194  138.7852  170.2411 H       1  UNL1        0.1466
     17 H         137.7835  139.9757  171.4148 H       1  UNL1        0.1466
     18 C         140.8301  140.0182  166.9719 C.3     1  UNL1        0.2240
     19 F         139.6205  139.2071  166.6127 F       1  UNL1       -0.2315
     20 N         141.6004  142.6449  162.9485 N.am    1  UNL1       -0.2791
     21 C         141.4681  144.0149  162.3522 C.2     1  UNL1        0.2672
     22 O         141.8077  145.2251  163.1708 O.2     1  UNL1       -0.2682
     23 H         141.3775  141.8506  162.4113 H       1  UNL1        0.1552
     24 C         140.9961  144.1747  160.9374 C.ar    1  UNL1        0.1348
     25 C         139.9245  143.2741  160.3981 C.ar    1  UNL1        0.0245
     26 C         139.4525  143.4339  158.9832 C.ar    1  UNL1        0.0135
     27 C         140.0521  144.4942  158.1078 C.ar    1  UNL1        0.0876
     28 C         141.1236  145.3948  158.6472 C.ar    1  UNL1        0.1092
     29 N         141.5956  145.2350  160.0620 N.ar    1  UNL1       -0.2385
     30 C         139.5801  144.6540  156.6930 C.1     1  UNL1        0.1020
     31 N         139.1081  144.8138  155.2781 N.1     1  UNL1       -0.1908
@<TRIPOS>BOND
     1     8     9    1
     2     9    10    2
     3    10    11    1
     4    11    18    1
     5    18    19    1
     6    11     1    1
     7     1     2   ar
     8     2     3   ar
     9     3    20    1
    10    20    21   am
    11    21    22    2
    12    21    24    1
    13    24    25   ar
    14    25    26   ar
    15    26    27   ar
    16    27    30    1
    17    30    31    3
    18    27    28   ar
    19    28    29   ar
    20     3     4   ar
    21     4     5   ar
    22     5     6   ar
    23     6     7    1
    24    11    12    1
    25    12    13    2
    26    13    14    1
    27    13    15    1
    28    15     9    1
    29     6     1   ar
    30    29    24   ar
    31    20    23    1
    32    14    16    1
    33    14    17    1
@<TRIPOS>MOLECULE
*****
 31 33 0 0 0
SMALL
GASTEIGER

@<TRIPOS>ATOM
      1 C         140.6120  140.9496  167.5869 C.ar    1  UNL1        0.0332
      2 C         140.3300  141.4368  166.1965 C.ar    1  UNL1        0.0148
      3 C         139.1531  140.8991  165.4377 C.ar    1  UNL1        0.0505
      4 C         138.2582  139.8742  166.0692 C.ar    1  UNL1        0.0170
      5 C         138.5403  139.3869  167.4596 C.ar    1  UNL1        0.0307
      6 C         139.7172  139.9247  168.2184 C.ar    1  UNL1        0.1383
      7 F         139.9992  139.4375  169.6088 F       1  UNL1       -0.2044
      8 C         140.0017  144.4856  170.2343 C.3     1  UNL1        0.0723
      9 C         141.0656  143.5336  169.7739 C.2     1  UNL1        0.1243
     10 C         140.7251  142.4393  168.8061 C.2     1  UNL1        0.0357
     11 C         141.7889  141.4874  168.3457 C.3     1  UNL1        0.1633
     12 N         143.1933  141.6296  168.8531 N.2     1  UNL1       -0.2168
     13 C         143.5338  142.7239  169.8209 C.2     1  UNL1        0.2815
     14 N         144.9382  142.8662  170.3283 N.pl3   1  UNL1       -0.3130
     15 O         142.4699  143.6759  170.2813 O.2     1  UNL1       -0.4305
     16 H         145.6365  142.2414  170.0261 H       1  UNL1        0.1466
     17 H         145.1617  143.5844  170.9635 H       1  UNL1        0.1466
     18 C         142.4440  140.3486  167.6218 C.3     1  UNL1        0.2240
     19 F         142.9320  139.1547  168.3875 F       1  UNL1       -0.2315
     20 N         138.8710  141.3863  164.0474 N.am    1  UNL1       -0.2791
     21 C         139.2983  140.5683  162.8649 C.2     1  UNL1        0.2672
     22 O         140.0077  139.2631  163.0727 O.2     1  UNL1       -0.2682
     23 H         138.4055  142.2429  163.9109 H       1  UNL1        0.1552
     24 C         139.0163  141.0555  161.4745 C.ar    1  UNL1        0.1348
     25 C         139.3653  142.4620  161.0875 C.ar    1  UNL1        0.0245
     26 C         139.0833  142.9492  159.6971 C.ar    1  UNL1        0.0135
     27 C         138.4522  142.0299  158.6939 C.ar    1  UNL1        0.0876
     28 C         138.1031  140.6234  159.0809 C.ar    1  UNL1        0.1092
     29 N         138.3851  140.1362  160.4713 N.ar    1  UNL1       -0.2385
     30 C         138.1701  142.5171  157.3035 C.1     1  UNL1        0.1020
     31 N         137.8880  143.0043  155.9131 N.1     1  UNL1       -0.1908
@<TRIPOS>BOND
     1     8     9    1
     2     9    10    2
     3    10    11    1
     4    11    18    1
     5    18    19    1
     6    11     1    1
     7     1     2   ar
     8     2     3   ar
     9     3    20    1
    10    20    21   am
    11    21    22    2
    12    21    24    1
    13    24    25   ar
    14    25    26   ar
    15    26    27   ar
    16    27    30    1
    17    30    31    3
    18    27    28   ar
    19    28    29   ar
    20     3     4   ar
    21     4     5   ar
    22     5     6   ar
    23     6     7    1
    24    11    12    1
    25    12    13    2
    26    13    14    1
    27    13    15    1
    28    15     9    1
    29     6     1   ar
    30    29    24   ar
    31    20    23    1
    32    14    16    1
    33    14    17    1
@<TRIPOS>MOLECULE
*****
 31 33 0 0 0
SMALL
GASTEIGER

@<TRIPOS>ATOM
      1 C         141.9158  141.3595  166.9742 C.ar    1  UNL1        0.0332
      2 C         141.2909  141.0439  165.6476 C.ar    1  UNL1        0.0148
      3 C         141.8838  141.6016  164.3877 C.ar    1  UNL1        0.0505
      4 C         143.1016  142.4749  164.4543 C.ar    1  UNL1        0.0170
      5 C         143.7264  142.7905  165.7809 C.ar    1  UNL1        0.0307
      6 C         143.1335  142.2328  167.0408 C.ar    1  UNL1        0.1383
      7 F         143.7584  142.5484  168.3675 F       1  UNL1       -0.2044
      8 C         140.1822  144.1951  169.9471 C.3     1  UNL1        0.0723
      9 C         140.4156  142.7311  169.7190 C.2     1  UNL1        0.1243
     10 C         141.0894  142.2659  168.4622 C.2     1  UNL1        0.0357
     11 C         141.3229  140.8018  168.2342 C.3     1  UNL1        0.1633
     12 N         140.8826  139.8029  169.2629 N.2     1  UNL1       -0.2168
     13 C         140.2088  140.2682  170.5197 C.2     1  UNL1        0.2815
     14 N         139.7684  139.2693  171.5485 N.pl3   1  UNL1       -0.3130
     15 O         139.9753  141.7322  170.7477 O.2     1  UNL1       -0.4305
     16 H         139.9217  138.3084  171.3989 H       1  UNL1        0.1466
     17 H         139.3262  139.5746  172.3734 H       1  UNL1        0.1466
     18 C         141.7623  139.5315  167.5685 C.3     1  UNL1        0.2240
     19 F         143.0857  138.9192  167.9205 F       1  UNL1       -0.2315
     20 N         141.2589  141.2860  163.0610 N.am    1  UNL1       -0.2791
     21 C         140.0444  142.0393  162.6059 C.2     1  UNL1        0.2672
     22 O         139.4546  143.1083  163.4773 O.2     1  UNL1       -0.2682
     23 H         141.6460  140.5843  162.4890 H       1  UNL1        0.1552
     24 C         139.4195  141.7237  161.2792 C.ar    1  UNL1        0.1348
     25 C         139.1262  140.3002  160.9081 C.ar    1  UNL1        0.0245
     26 C         138.5013  139.9846  159.5814 C.ar    1  UNL1        0.0135
     27 C         138.1698  141.0925  158.6260 C.ar    1  UNL1        0.0876
     28 C         138.4631  142.5159  158.9971 C.ar    1  UNL1        0.1092
     29 N         139.0880  142.8315  160.3238 N.ar    1  UNL1       -0.2385
     30 C         137.5449  140.7768  157.2993 C.1     1  UNL1        0.1020
     31 N         136.9200  140.4612  155.9727 N.1     1  UNL1       -0.1908
@<TRIPOS>BOND
     1     8     9    1
     2     9    10    2
     3    10    11    1
     4    11    18    1
     5    18    19    1
     6    11     1    1
     7     1     2   ar
     8     2     3   ar
     9     3    20    1
    10    20    21   am
    11    21    22    2
    12    21    24    1
    13    24    25   ar
    14    25    26   ar
    15    26    27   ar
    16    27    30    1
    17    30    31    3
    18    27    28   ar
    19    28    29   ar
    20     3     4   ar
    21     4     5   ar
    22     5     6   ar
    23     6     7    1
    24    11    12    1
    25    12    13    2
    26    13    14    1
    27    13    15    1
    28    15     9    1
    29     6     1   ar
    30    29    24   ar
    31    20    23    1
    32    14    16    1
    33    14    17    1
@<TRIPOS>MOLECULE
*****
 31 33 0 0 0
SMALL
GASTEIGER

@<TRIPOS>ATOM
      1 C         139.6221  139.2100  164.6656 C.ar    1  UNL1        0.0332
      2 C         139.9338  140.2072  163.5893 C.ar    1  UNL1        0.0148
      3 C         139.6237  139.8865  162.1572 C.ar    1  UNL1        0.0505
      4 C         139.0019  138.5686  161.8013 C.ar    1  UNL1        0.0170
      5 C         138.6902  137.5714  162.8777 C.ar    1  UNL1        0.0307
      6 C         139.0003  137.8922  164.3098 C.ar    1  UNL1        0.1383
      7 F         138.6887  136.8950  165.3862 F       1  UNL1       -0.2044
      8 C         143.7731  138.5332  166.1473 C.3     1  UNL1        0.0723
      9 C         142.4280  139.0156  166.6033 C.2     1  UNL1        0.1243
     10 C         141.2773  139.0484  165.6417 C.2     1  UNL1        0.0357
     11 C         139.9322  139.5308  166.0977 C.3     1  UNL1        0.1633
     12 N         139.7378  139.9804  167.5155 N.2     1  UNL1       -0.2168
     13 C         140.8884  139.9476  168.4771 C.2     1  UNL1        0.2815
     14 N         140.6940  140.3972  169.8950 N.pl3   1  UNL1       -0.3130
     15 O         142.2335  139.4652  168.0211 O.2     1  UNL1       -0.4305
     16 H         139.8112  140.7138  170.1943 H       1  UNL1        0.1466
     17 H         141.4493  140.3756  170.5261 H       1  UNL1        0.1466
     18 C         138.4794  139.9018  166.0564 C.3     1  UNL1        0.2240
     19 F         137.4878  139.1435  166.8881 F       1  UNL1       -0.2315
     20 N         139.9353  140.8837  161.0808 N.am    1  UNL1       -0.2791
     21 C         138.9512  141.9678  160.7550 C.2     1  UNL1        0.2672
     22 O         137.6554  142.0548  161.5055 O.2     1  UNL1       -0.2682
     23 H         140.7858  140.8266  160.5882 H       1  UNL1        0.1552
     24 C         139.2629  142.9650  159.6786 C.ar    1  UNL1        0.1348
     25 C         138.9798  142.6326  158.2436 C.ar    1  UNL1        0.0245
     26 C         139.2914  143.6298  157.1672 C.ar    1  UNL1        0.0135
     27 C         139.8862  144.9593  157.5260 C.ar    1  UNL1        0.0876
     28 C         140.1694  145.2916  158.9610 C.ar    1  UNL1        0.1092
     29 N         139.8577  144.2944  160.0374 N.ar    1  UNL1       -0.2385
     30 C         140.1979  145.9565  156.4496 C.1     1  UNL1        0.1020
     31 N         140.5096  146.9537  155.3732 N.1     1  UNL1       -0.1908
@<TRIPOS>BOND
     1     8     9    1
     2     9    10    2
     3    10    11    1
     4    11    18    1
     5    18    19    1
     6    11     1    1
     7     1     2   ar
     8     2     3   ar
     9     3    20    1
    10    20    21   am
    11    21    22    2
    12    21    24    1
    13    24    25   ar
    14    25    26   ar
    15    26    27   ar
    16    27    30    1
    17    30    31    3
    18    27    28   ar
    19    28    29   ar
    20     3     4   ar
    21     4     5   ar
    22     5     6   ar
    23     6     7    1
    24    11    12    1
    25    12    13    2
    26    13    14    1
    27    13    15    1
    28    15     9    1
    29     6     1   ar
    30    29    24   ar
    31    20    23    1
    32    14    16    1
    33    14    17    1
@<TRIPOS>MOLECULE
*****
 31 33 0 0 0
SMALL
GASTEIGER

@<TRIPOS>ATOM
      1 C         142.1311  140.3992  166.0879 C.ar    1  UNL1        0.0332
      2 C         141.8430  141.3813  164.9913 C.ar    1  UNL1        0.0148
      3 C         142.6065  141.3113  163.7021 C.ar    1  UNL1        0.0505
      4 C         143.6581  140.2592  163.5093 C.ar    1  UNL1        0.0170
      5 C         143.9463  139.2771  164.6059 C.ar    1  UNL1        0.0307
      6 C         143.1828  139.3472  165.8952 C.ar    1  UNL1        0.1383
      7 F         143.4709  138.3650  166.9918 F       1  UNL1       -0.2044
      8 C         138.0926  138.5179  166.2743 C.3     1  UNL1        0.0723
      9 C         139.0741  139.2767  167.1174 C.2     1  UNL1        0.1243
     10 C         140.3862  139.7104  166.5340 C.2     1  UNL1        0.0357
     11 C         141.3676  140.4693  167.3772 C.3     1  UNL1        0.1633
     12 N         141.0371  140.7944  168.8037 N.2     1  UNL1       -0.2168
     13 C         139.7251  140.3607  169.3871 C.2     1  UNL1        0.2815
     14 N         139.3945  140.6858  170.8136 N.pl3   1  UNL1       -0.3130
     15 O         138.7436  139.6018  168.5440 O.2     1  UNL1       -0.4305
     16 H         140.0386  141.1839  171.3670 H       1  UNL1        0.1466
     17 H         138.5333  140.4011  171.1966 H       1  UNL1        0.1466
     18 C         142.6143  141.2038  167.7724 C.3     1  UNL1        0.2240
     19 F         143.3425  140.8239  169.0276 F       1  UNL1       -0.2315
     20 N         142.3183  142.2934  162.6055 N.am    1  UNL1       -0.2791
     21 C         141.1937  142.0381  161.6464 C.2     1  UNL1        0.2672
     22 O         140.3571  140.8006  161.7838 O.2     1  UNL1       -0.2682
     23 H         142.8674  143.1056  162.5153 H       1  UNL1        0.1552
     24 C         140.9055  143.0202  160.5498 C.ar    1  UNL1        0.1348
     25 C         141.4919  144.3997  160.6054 C.ar    1  UNL1        0.0245
     26 C         141.2038  145.3818  159.5088 C.ar    1  UNL1        0.0135
     27 C         140.3293  144.9844  158.3567 C.ar    1  UNL1        0.0876
     28 C         139.7429  143.6049  158.3012 C.ar    1  UNL1        0.1092
     29 N         140.0310  142.6227  159.3978 N.ar    1  UNL1       -0.2385
     30 C         140.0411  145.9665  157.2601 C.1     1  UNL1        0.1020
     31 N         139.7530  146.9486  156.1635 N.1     1  UNL1       -0.1908
@<TRIPOS>BOND
     1     8     9    1
     2     9    10    2
     3    10    11    1
     4    11    18    1
     5    18    19    1
     6    11     1    1
     7     1     2   ar
     8     2     3   ar
     9     3    20    1
    10    20    21   am
    11    21    22    2
    12    21    24    1
    13    24    25   ar
    14    25    26   ar
    15    26    27   ar
    16    27    30    1
    17    30    31    3
    18    27    28   ar
    19    28    29   ar
    20     3     4   ar
    21     4     5   ar
    22     5     6   ar
    23     6     7    1
    24    11    12    1
    25    12    13    2
    26    13    14    1
    27    13    15    1
    28    15     9    1
    29     6     1   ar
    30    29    24   ar
    31    20    23    1
    32    14    16    1
    33    14    17    1
@<TRIPOS>MOLECULE
*****
 31 33 0 0 0
SMALL
GASTEIGER

@<TRIPOS>ATOM
      1 C         141.1961  139.1161  160.4345 C.ar    1  UNL1        0.0332
      2 C         141.3435  139.4271  161.8945 C.ar    1  UNL1        0.0148
      3 C         140.2326  139.0982  162.8473 C.ar    1  UNL1        0.0505
      4 C         138.9743  138.4583  162.3401 C.ar    1  UNL1        0.0170
      5 C         138.8269  138.1472  160.8801 C.ar    1  UNL1        0.0307
      6 C         139.9378  138.4761  159.9274 C.ar    1  UNL1        0.1383
      7 F         139.7904  138.1651  158.4674 F       1  UNL1       -0.2044
      8 C         141.2968  143.1814  158.6051 C.3     1  UNL1        0.0723
      9 C         142.0458  141.8819  158.6197 C.2     1  UNL1        0.1243
     10 C         141.5579  140.7445  159.4671 C.2     1  UNL1        0.0357
     11 C         142.3070  139.4450  159.4818 C.3     1  UNL1        0.1633
     12 N         143.5440  139.2829  158.6490 N.2     1  UNL1       -0.2168
     13 C         144.0319  140.4204  157.8016 C.2     1  UNL1        0.2815
     14 N         145.2690  140.2583  156.9689 N.pl3   1  UNL1       -0.3130
     15 O         143.2828  141.7198  157.7870 O.2     1  UNL1       -0.4305
     16 H         145.7606  139.4054  156.9785 H       1  UNL1        0.1466
     17 H         145.5892  141.0049  156.4127 H       1  UNL1        0.1466
     18 C         142.6702  138.0312  159.8273 C.3     1  UNL1        0.2240
     19 F         142.8839  137.0238  158.7367 F       1  UNL1       -0.2315
     20 N         140.3800  139.4092  164.3073 N.am    1  UNL1       -0.2791
     21 C         139.7789  140.6623  164.8716 C.2     1  UNL1        0.2672
     22 O         139.0304  141.6043  163.9759 O.2     1  UNL1       -0.2682
     23 H         140.8713  138.7909  164.8951 H       1  UNL1        0.1552
     24 C         139.9263  140.9733  166.3316 C.ar    1  UNL1        0.1348
     25 C         140.4418  142.3138  166.7645 C.ar    1  UNL1        0.0245
     26 C         140.5892  142.6248  168.2245 C.ar    1  UNL1        0.0135
     27 C         140.2211  141.5954  169.2515 C.ar    1  UNL1        0.0876
     28 C         139.7055  140.2549  168.8186 C.ar    1  UNL1        0.1092
     29 N         139.5581  139.9439  167.3586 N.ar    1  UNL1       -0.2385
     30 C         140.3685  141.9064  170.7115 C.1     1  UNL1        0.1020
     31 N         140.5159  142.2175  172.1715 N.1     1  UNL1       -0.1908
@<TRIPOS>BOND
     1     8     9    1
     2     9    10    2
     3    10    11    1
     4    11    18    1
     5    18    19    1
     6    11     1    1
     7     1     2   ar
     8     2     3   ar
     9     3    20    1
    10    20    21   am
    11    21    22    2
    12    21    24    1
    13    24    25   ar
    14    25    26   ar
    15    26    27   ar
    16    27    30    1
    17    30    31    3
    18    27    28   ar
    19    28    29   ar
    20     3     4   ar
    21     4     5   ar
    22     5     6   ar
    23     6     7    1
    24    11    12    1
    25    12    13    2
    26    13    14    1
    27    13    15    1
    28    15     9    1
    29     6     1   ar
    30    29    24   ar
    31    20    23    1
    32    14    16    1
    33    14    17    1
@<TRIPOS>MOLECULE
*****
 31 33 0 0 0
SMALL
GASTEIGER

@<TRIPOS>ATOM
      1 C         140.6568  141.4555  166.6206 C.ar    1  UNL1        0.0332
      2 C         141.1489  140.6309  165.4682 C.ar    1  UNL1        0.0148
      3 C         141.3814  141.2723  164.1323 C.ar    1  UNL1        0.0505
      4 C         141.1218  142.7382  163.9488 C.ar    1  UNL1        0.0170
      5 C         140.6297  143.5628  165.1012 C.ar    1  UNL1        0.0307
      6 C         140.3972  142.9214  166.4370 C.ar    1  UNL1        0.1383
      7 F         139.9051  143.7459  167.5894 F       1  UNL1       -0.2044
      8 C         143.6434  142.1426  169.8597 C.3     1  UNL1        0.0723
      9 C         142.3529  141.4292  169.5851 C.2     1  UNL1        0.1243
     10 C         141.7149  141.5275  168.2311 C.2     1  UNL1        0.0357
     11 C         140.4244  140.8140  167.9565 C.3     1  UNL1        0.1633
     12 N         139.7717  140.0022  169.0358 N.2     1  UNL1       -0.2168
     13 C         140.4097  139.9039  170.3898 C.2     1  UNL1        0.2815
     14 N         139.7571  139.0920  171.4692 N.pl3   1  UNL1       -0.3130
     15 O         141.7003  140.6174  170.6644 O.2     1  UNL1       -0.4305
     16 H         138.9100  138.6238  171.2890 H       1  UNL1        0.1466
     17 H         140.1758  139.0275  172.3579 H       1  UNL1        0.1466
     18 C         139.2146  140.3234  167.2178 C.3     1  UNL1        0.2240
     19 F         138.3914  139.2054  167.7857 F       1  UNL1       -0.2315
     20 N         141.8735  140.4478  162.9799 N.am    1  UNL1       -0.2791
     21 C         140.9579  140.1412  161.8321 C.2     1  UNL1        0.2672
     22 O         139.5502  140.6591  161.8365 O.2     1  UNL1       -0.2682
     23 H         142.7974  140.1078  162.9770 H       1  UNL1        0.1552
     24 C         141.4500  139.3166  160.6796 C.ar    1  UNL1        0.1348
     25 C         142.4942  138.2632  160.9031 C.ar    1  UNL1        0.0245
     26 C         142.9864  137.4387  159.7507 C.ar    1  UNL1        0.0135
     27 C         142.4342  137.6676  158.3749 C.ar    1  UNL1        0.0876
     28 C         141.3900  138.7210  158.1515 C.ar    1  UNL1        0.1092
     29 N         140.8979  139.5456  159.3039 N.ar    1  UNL1       -0.2385
     30 C         142.9264  136.8430  157.2225 C.1     1  UNL1        0.1020
     31 N         143.4185  136.0185  156.0701 N.1     1  UNL1       -0.1908
@<TRIPOS>BOND
     1     8     9    1
     2     9    10    2
     3    10    11    1
     4    11    18    1
     5    18    19    1
     6    11     1    1
     7     1     2   ar
     8     2     3   ar
     9     3    20    1
    10    20    21   am
    11    21    22    2
    12    21    24    1
    13    24    25   ar
    14    25    26   ar
    15    26    27   ar
    16    27    30    1
    17    30    31    3
    18    27    28   ar
    19    28    29   ar
    20     3     4   ar
    21     4     5   ar
    22     5     6   ar
    23     6     7    1
    24    11    12    1
    25    12    13    2
    26    13    14    1
    27    13    15    1
    28    15     9    1
    29     6     1   ar
    30    29    24   ar
    31    20    23    1
    32    14    16    1
    33    14    17    1
