@<TRIPOS>MOLECULE
*****
 32 35 0 0 0
SMALL
GASTEIGER

@<TRIPOS>ATOM
      1 N         139.7762  137.6260  161.9229 N.3     1  UNL1       -0.1696
      2 H         140.7606  137.4188  161.7544 H       1  UNL1        0.1494
      3 S         139.6785  138.1541  163.3235 S.O2    1  UNL1        0.0607
      4 O         140.8093  139.0996  163.0457 O.2     1  UNL1       -0.1530
      5 O         138.5477  137.2086  163.6012 O.2     1  UNL1       -0.1530
      6 C         139.5809  138.6822  164.7240 C.ar    1  UNL1        0.1222
      7 C         140.7015  139.4978  165.2978 C.ar    1  UNL1        0.0230
      8 C         140.6038  140.0258  166.6985 C.ar    1  UNL1        0.0383
      9 C         139.3856  139.7384  167.5252 C.ar    1  UNL1        0.1385
     10 C         138.2651  138.9228  166.9513 C.ar    1  UNL1        0.0383
     11 C         138.3628  138.3948  165.5507 C.ar    1  UNL1        0.0230
     12 O         139.2880  140.2665  168.9257 O.3     1  UNL1       -0.4792
     13 C         140.3116  141.2382  169.4339 C.3     1  UNL1        0.1659
     14 C         140.3631  142.7055  169.1270 C.3     1  UNL1        0.0435
     15 C         141.5467  143.2873  169.8416 C.3     1  UNL1        0.0038
     16 C         142.2266  142.1794  170.5902 C.3     1  UNL1        0.0038
     17 C         141.4633  140.9130  170.3383 C.3     1  UNL1        0.0435
     18 C         139.3067  138.4641  160.7709 C.3     1  UNL1        0.1781
     19 C         140.0742  138.4649  159.4821 C.2     1  UNL1        0.3334
     20 O         141.5652  138.6278  159.4973 O.2     1  UNL1       -0.2485
     21 C         140.0356  137.6449  157.0172 C.3     1  UNL1        0.2556
     22 O         139.3506  138.3027  158.1783 O.3     1  UNL1       -0.4434
     23 C         138.0696  139.3015  160.9076 C.3     1  UNL1        0.0567
     24 C         138.1744  140.7978  160.9205 C.2     1  UNL1        0.0000
     25 C         138.4301  141.6739  159.7301 C.2     1  UNL1        0.0942
     26 N         138.4556  143.0982  160.1999 N.2     1  UNL1       -0.2482
     27 C         138.2158  143.1023  161.6806 C.2     1  UNL1        0.0631
     28 C         138.1332  144.2170  162.6809 C.3     1  UNL1        0.0717
     29 C         137.8768  143.9099  164.1266 C.2     1  UNL1       -0.0198
     30 C         137.7030  142.4881  164.5719 C.2     1  UNL1       -0.0042
     31 C         137.7856  141.3734  163.5716 C.2     1  UNL1        0.0006
     32 C         138.0420  141.6805  162.1260 C.2     1  UNL1        0.0115
@<TRIPOS>BOND
     1    21    22    1
     2    22    19    1
     3    19    20    2
     4    19    18    1
     5    18    23    1
     6    23    24    1
     7    24    25    2
     8    25    26    1
     9    26    27    2
    10    27    28    1
    11    28    29    1
    12    29    30    2
    13    30    31    1
    14    31    32    2
    15    18     1    1
    16     1     3    1
    17     3     4    2
    18     3     5    2
    19     3     6    1
    20     6     7   ar
    21     7     8   ar
    22     8     9   ar
    23     9    12    1
    24    12    13    1
    25    13    14    1
    26    14    15    1
    27    15    16    1
    28    16    17    1
    29     9    10   ar
    30    10    11   ar
    31    32    24    1
    32    11     6   ar
    33    32    27    1
    34    17    13    1
    35     1     2    1
@<TRIPOS>MOLECULE
*****
 32 35 0 0 0
SMALL
GASTEIGER

@<TRIPOS>ATOM
      1 N         140.3895  137.6484  161.9186 N.3     1  UNL1       -0.1696
      2 H         141.1732  137.0002  161.9968 H       1  UNL1        0.1494
      3 S         140.0443  138.0805  163.3128 S.O2    1  UNL1        0.0607
      4 O         141.4897  138.3818  163.5773 O.2     1  UNL1       -0.1530
      5 O         138.5988  137.7791  163.0484 O.2     1  UNL1       -0.1530
      6 C         139.6991  138.5126  164.7072 C.ar    1  UNL1        0.1222
      7 C         140.6264  139.4173  165.4632 C.ar    1  UNL1        0.0230
      8 C         140.2811  139.8493  166.8576 C.ar    1  UNL1        0.0383
      9 C         139.0085  139.3768  167.4958 C.ar    1  UNL1        0.1385
     10 C         138.0812  138.4721  166.7397 C.ar    1  UNL1        0.0383
     11 C         138.4265  138.0400  165.3454 C.ar    1  UNL1        0.0230
     12 O         138.6633  139.8089  168.8901 O.3     1  UNL1       -0.4792
     13 C         139.6840  140.5182  169.7299 C.3     1  UNL1        0.1659
     14 C         139.7446  141.9953  169.9834 C.3     1  UNL1        0.0435
     15 C         140.9213  142.2650  170.8737 C.3     1  UNL1        0.0038
     16 C         141.5879  140.9544  171.1704 C.3     1  UNL1        0.0038
     17 C         140.8233  139.8748  170.4635 C.3     1  UNL1        0.0435
     18 C         140.7740  138.6704  160.8902 C.3     1  UNL1        0.1781
     19 C         141.8646  138.3697  159.9051 C.2     1  UNL1        0.3334
     20 O         141.8337  138.9897  158.5396 O.2     1  UNL1       -0.2485
     21 C         143.9922  137.8774  161.3125 C.3     1  UNL1        0.2556
     22 O         142.9860  137.4491  160.2857 O.3     1  UNL1       -0.4434
     23 C         140.0679  139.9932  160.8467 C.3     1  UNL1        0.0567
     24 C         140.5822  141.1449  161.6586 C.2     1  UNL1        0.0000
     25 C         141.9255  141.7963  161.5126 C.2     1  UNL1        0.0942
     26 N         142.0169  142.9014  162.5228 N.2     1  UNL1       -0.2482
     27 C         140.7302  142.9329  163.2931 C.2     1  UNL1        0.0631
     28 C         140.2514  143.8099  164.4118 C.3     1  UNL1        0.0717
     29 C         138.8859  143.6014  164.9965 C.2     1  UNL1       -0.0198
     30 C         137.9992  142.5158  164.4624 C.2     1  UNL1       -0.0042
     31 C         138.4780  141.6388  163.3436 C.2     1  UNL1        0.0006
     32 C         139.8435  141.8474  162.7590 C.2     1  UNL1        0.0115
@<TRIPOS>BOND
     1    21    22    1
     2    22    19    1
     3    19    20    2
     4    19    18    1
     5    18    23    1
     6    23    24    1
     7    24    25    2
     8    25    26    1
     9    26    27    2
    10    27    28    1
    11    28    29    1
    12    29    30    2
    13    30    31    1
    14    31    32    2
    15    18     1    1
    16     1     3    1
    17     3     4    2
    18     3     5    2
    19     3     6    1
    20     6     7   ar
    21     7     8   ar
    22     8     9   ar
    23     9    12    1
    24    12    13    1
    25    13    14    1
    26    14    15    1
    27    15    16    1
    28    16    17    1
    29     9    10   ar
    30    10    11   ar
    31    32    24    1
    32    11     6   ar
    33    32    27    1
    34    17    13    1
    35     1     2    1
@<TRIPOS>MOLECULE
*****
 32 35 0 0 0
SMALL
GASTEIGER

@<TRIPOS>ATOM
      1 N         139.3771  137.4417  162.2366 N.3     1  UNL1       -0.1696
      2 H         139.9306  136.6922  161.8215 H       1  UNL1        0.1494
      3 S         140.1227  137.9090  163.4513 S.O2    1  UNL1        0.0607
      4 O         138.8305  138.3421  164.0778 O.2     1  UNL1       -0.1530
      5 O         141.4150  137.4758  162.8248 O.2     1  UNL1       -0.1530
      6 C         140.8683  138.3763  164.6661 C.ar    1  UNL1        0.1222
      7 C         140.1885  139.2599  165.6696 C.ar    1  UNL1        0.0230
      8 C         140.9342  139.7271  166.8844 C.ar    1  UNL1        0.0383
      9 C         142.3597  139.3108  167.0957 C.ar    1  UNL1        0.1385
     10 C         143.0395  138.4272  166.0921 C.ar    1  UNL1        0.0383
     11 C         142.2938  137.9599  164.8774 C.ar    1  UNL1        0.0230
     12 O         143.1053  139.7781  168.3104 O.3     1  UNL1       -0.4792
     13 C         142.5431  140.8813  169.1572 C.3     1  UNL1        0.1659
     14 C         141.6784  140.7080  170.3706 C.3     1  UNL1        0.0435
     15 C         141.3478  142.0710  170.9026 C.3     1  UNL1        0.0038
     16 C         142.0082  143.0865  170.0180 C.3     1  UNL1        0.0038
     17 C         142.7469  142.3513  168.9393 C.3     1  UNL1        0.0435
     18 C         139.0598  138.4075  161.1337 C.3     1  UNL1        0.1781
     19 C         139.9322  138.4671  159.9149 C.2     1  UNL1        0.3334
     20 O         139.3469  138.1998  158.5599 O.2     1  UNL1       -0.2485
     21 C         141.8127  140.1581  160.5099 C.3     1  UNL1        0.2556
     22 O         141.3897  138.7940  160.0512 O.3     1  UNL1       -0.4434
     23 C         137.8700  139.3138  161.2495 C.3     1  UNL1        0.0567
     24 C         138.0480  140.8004  161.1583 C.2     1  UNL1        0.0000
     25 C         138.2995  141.5830  159.9036 C.2     1  UNL1        0.0942
     26 N         138.4126  143.0317  160.2758 N.2     1  UNL1       -0.2482
     27 C         138.2310  143.1445  161.7605 C.2     1  UNL1        0.0631
     28 C         138.2417  144.3247  162.6862 C.3     1  UNL1        0.0717
     29 C         138.0271  144.1258  164.1573 C.2     1  UNL1       -0.0198
     30 C         137.8017  142.7468  164.7028 C.2     1  UNL1       -0.0042
     31 C         137.7910  141.5666  163.7771 C.2     1  UNL1        0.0006
     32 C         138.0056  141.7654  162.3059 C.2     1  UNL1        0.0115
@<TRIPOS>BOND
     1    21    22    1
     2    22    19    1
     3    19    20    2
     4    19    18    1
     5    18    23    1
     6    23    24    1
     7    24    25    2
     8    25    26    1
     9    26    27    2
    10    27    28    1
    11    28    29    1
    12    29    30    2
    13    30    31    1
    14    31    32    2
    15    18     1    1
    16     1     3    1
    17     3     4    2
    18     3     5    2
    19     3     6    1
    20     6     7   ar
    21     7     8   ar
    22     8     9   ar
    23     9    12    1
    24    12    13    1
    25    13    14    1
    26    14    15    1
    27    15    16    1
    28    16    17    1
    29     9    10   ar
    30    10    11   ar
    31    32    24    1
    32    11     6   ar
    33    32    27    1
    34    17    13    1
    35     1     2    1
@<TRIPOS>MOLECULE
*****
 32 35 0 0 0
SMALL
GASTEIGER

@<TRIPOS>ATOM
      1 N         142.2699  145.0867  161.8304 N.3     1  UNL1       -0.1696
      2 H         142.5647  145.9733  162.2397 H       1  UNL1        0.1494
      3 S         142.3077  144.0681  162.9309 S.O2    1  UNL1        0.0607
      4 O         142.4491  145.1665  163.9426 O.2     1  UNL1       -0.1530
      5 O         142.1663  142.9698  161.9191 O.2     1  UNL1       -0.1530
      6 C         142.3455  143.0496  164.0313 C.ar    1  UNL1        0.1222
      7 C         143.2490  143.2535  165.2113 C.ar    1  UNL1        0.0230
      8 C         143.2867  142.2348  166.3118 C.ar    1  UNL1        0.0383
      9 C         142.4211  141.0123  166.2323 C.ar    1  UNL1        0.1385
     10 C         141.5177  140.8085  165.0523 C.ar    1  UNL1        0.0383
     11 C         141.4799  141.8271  163.9519 C.ar    1  UNL1        0.0230
     12 O         142.4590  139.9938  167.3328 O.3     1  UNL1       -0.4792
     13 C         141.4577  140.0569  168.4479 C.3     1  UNL1        0.1659
     14 C         139.9795  140.2609  168.2950 C.3     1  UNL1        0.0435
     15 C         139.3670  140.2572  169.6643 C.3     1  UNL1        0.0038
     16 C         140.4667  140.0509  170.6634 C.3     1  UNL1        0.0038
     17 C         141.7588  139.9271  169.9116 C.3     1  UNL1        0.0435
     18 C         140.9880  145.3527  161.0983 C.3     1  UNL1        0.1781
     19 C         140.9520  145.2854  159.6003 C.2     1  UNL1        0.3334
     20 O         139.6421  145.3855  158.8763 O.2     1  UNL1       -0.2485
     21 C         142.6736  143.7494  158.4060 C.3     1  UNL1        0.2556
     22 O         142.2259  145.1179  158.8263 O.3     1  UNL1       -0.4434
     23 C         139.7420  145.6861  161.8643 C.3     1  UNL1        0.0567
     24 C         139.0722  144.6362  162.7005 C.2     1  UNL1        0.0000
     25 C         138.7241  144.7567  164.1545 C.2     1  UNL1        0.0942
     26 N         138.0697  143.4765  164.5820 N.2     1  UNL1       -0.2482
     27 C         138.0134  142.5648  163.3922 C.2     1  UNL1        0.0631
     28 C         137.4779  141.1746  163.2175 C.3     1  UNL1        0.0717
     29 C         137.5621  140.5012  161.8798 C.2     1  UNL1       -0.0198
     30 C         138.1817  141.2179  160.7169 C.2     1  UNL1       -0.0042
     31 C         138.7172  142.6081  160.8917 C.2     1  UNL1        0.0006
     32 C         138.6330  143.2816  162.2293 C.2     1  UNL1        0.0115
@<TRIPOS>BOND
     1    21    22    1
     2    22    19    1
     3    19    20    2
     4    19    18    1
     5    18    23    1
     6    23    24    1
     7    24    25    2
     8    25    26    1
     9    26    27    2
    10    27    28    1
    11    28    29    1
    12    29    30    2
    13    30    31    1
    14    31    32    2
    15    18     1    1
    16     1     3    1
    17     3     4    2
    18     3     5    2
    19     3     6    1
    20     6     7   ar
    21     7     8   ar
    22     8     9   ar
    23     9    12    1
    24    12    13    1
    25    13    14    1
    26    14    15    1
    27    15    16    1
    28    16    17    1
    29     9    10   ar
    30    10    11   ar
    31    32    24    1
    32    11     6   ar
    33    32    27    1
    34    17    13    1
    35     1     2    1
@<TRIPOS>MOLECULE
*****
 32 35 0 0 0
SMALL
GASTEIGER

@<TRIPOS>ATOM
      1 N         138.4739  142.6002  160.3658 N.3     1  UNL1       -0.1696
      2 H         137.6236  143.1619  160.4099 H       1  UNL1        0.1494
      3 S         139.1042  142.6615  161.7255 S.O2    1  UNL1        0.0607
      4 O         140.3973  142.1669  161.1482 O.2     1  UNL1       -0.1530
      5 O         137.8112  143.1562  162.3028 O.2     1  UNL1       -0.1530
      6 C         139.7347  142.7228  163.0852 C.ar    1  UNL1        0.1222
      7 C         140.9994  141.9645  163.3604 C.ar    1  UNL1        0.0230
      8 C         141.6298  142.0259  164.7201 C.ar    1  UNL1        0.0383
      9 C         140.9956  142.8454  165.8047 C.ar    1  UNL1        0.1385
     10 C         139.7309  143.6036  165.5294 C.ar    1  UNL1        0.0383
     11 C         139.1005  143.5423  164.1697 C.ar    1  UNL1        0.0230
     12 O         141.6260  142.9066  167.1643 O.3     1  UNL1       -0.4792
     13 C         140.8260  142.5403  168.3792 C.3     1  UNL1        0.1659
     14 C         140.1497  141.2243  168.6256 C.3     1  UNL1        0.0435
     15 C         139.4676  141.2963  169.9596 C.3     1  UNL1        0.0038
     16 C         139.7224  142.6568  170.5376 C.3     1  UNL1        0.0038
     17 C         140.5619  143.4257  169.5609 C.3     1  UNL1        0.0435
     18 C         138.0879  141.2757  159.7770 C.3     1  UNL1        0.1781
     19 C         138.2808  141.0217  158.3113 C.2     1  UNL1        0.3334
     20 O         137.1533  141.2668  157.3529 O.2     1  UNL1       -0.2485
     21 C         139.6992  139.1621  157.1800 C.3     1  UNL1        0.2556
     22 O         139.6013  140.5225  157.8042 O.3     1  UNL1       -0.4434
     23 C         137.5089  140.2052  160.6540 C.3     1  UNL1        0.0567
     24 C         138.4178  139.2889  161.4184 C.2     1  UNL1        0.0000
     25 C         139.3495  138.2743  160.8246 C.2     1  UNL1        0.0942
     26 N         140.0620  137.5848  161.9501 N.2     1  UNL1       -0.2482
     27 C         139.5708  138.1732  163.2395 C.2     1  UNL1        0.0631
     28 C         139.9175  137.8861  164.6703 C.3     1  UNL1        0.0717
     29 C         139.2481  138.6522  165.7725 C.2     1  UNL1       -0.0198
     30 C         138.2319  139.7054  165.4439 C.2     1  UNL1       -0.0042
     31 C         137.8851  139.9926  164.0131 C.2     1  UNL1        0.0006
     32 C         138.5546  139.2265  162.9109 C.2     1  UNL1        0.0115
@<TRIPOS>BOND
     1    21    22    1
     2    22    19    1
     3    19    20    2
     4    19    18    1
     5    18    23    1
     6    23    24    1
     7    24    25    2
     8    25    26    1
     9    26    27    2
    10    27    28    1
    11    28    29    1
    12    29    30    2
    13    30    31    1
    14    31    32    2
    15    18     1    1
    16     1     3    1
    17     3     4    2
    18     3     5    2
    19     3     6    1
    20     6     7   ar
    21     7     8   ar
    22     8     9   ar
    23     9    12    1
    24    12    13    1
    25    13    14    1
    26    14    15    1
    27    15    16    1
    28    16    17    1
    29     9    10   ar
    30    10    11   ar
    31    32    24    1
    32    11     6   ar
    33    32    27    1
    34    17    13    1
    35     1     2    1
@<TRIPOS>MOLECULE
*****
 32 35 0 0 0
SMALL
GASTEIGER

@<TRIPOS>ATOM
      1 N         141.4963  138.8262  160.2428 N.3     1  UNL1       -0.1696
      2 H         142.0836  139.4705  159.7134 H       1  UNL1        0.1494
      3 S         141.7669  139.0873  161.6949 S.O2    1  UNL1        0.0607
      4 O         141.7043  140.5643  161.4409 O.2     1  UNL1       -0.1530
      5 O         141.8295  137.6103  161.9489 O.2     1  UNL1       -0.1530
      6 C         142.0375  139.3484  163.1470 C.ar    1  UNL1        0.1222
      7 C         142.5201  138.2373  164.0316 C.ar    1  UNL1        0.0230
      8 C         142.7907  138.4986  165.4838 C.ar    1  UNL1        0.0383
      9 C         142.5787  139.8709  166.0512 C.ar    1  UNL1        0.1385
     10 C         142.0960  140.9819  165.1665 C.ar    1  UNL1        0.0383
     11 C         141.8254  140.7206  163.7144 C.ar    1  UNL1        0.0230
     12 O         142.8493  140.1320  167.5033 O.3     1  UNL1       -0.4792
     13 C         141.7113  140.1981  168.4782 C.3     1  UNL1        0.1659
     14 C         140.3943  140.8792  168.2512 C.3     1  UNL1        0.0435
     15 C         139.5595  140.6967  169.4841 C.3     1  UNL1        0.0038
     16 C         140.3606  139.9027  170.4729 C.3     1  UNL1        0.0038
     17 C         141.6905  139.5945  169.8513 C.3     1  UNL1        0.0435
     18 C         140.1040  138.9659  159.7024 C.3     1  UNL1        0.1781
     19 C         139.8866  139.5083  158.3209 C.2     1  UNL1        0.3334
     20 O         141.0491  140.0264  157.5271 O.2     1  UNL1       -0.2485
     21 C         137.8582  140.8424  157.3962 C.3     1  UNL1        0.2556
     22 O         138.5068  139.5325  157.7333 O.3     1  UNL1       -0.4434
     23 C         138.9290  138.5631  160.5435 C.3     1  UNL1        0.0567
     24 C         138.5309  139.3977  161.7246 C.2     1  UNL1        0.0000
     25 C         138.0413  140.8148  161.6779 C.2     1  UNL1        0.0942
     26 N         137.7603  141.2546  163.0841 N.2     1  UNL1       -0.2482
     27 C         138.0761  140.1094  163.9999 C.2     1  UNL1        0.0631
     28 C         137.9915  139.9633  165.4904 C.3     1  UNL1        0.0717
     29 C         138.3832  138.6695  166.1405 C.2     1  UNL1       -0.0198
     30 C         138.8595  137.5219  165.3002 C.2     1  UNL1       -0.0042
     31 C         138.9440  137.6680  163.8098 C.2     1  UNL1        0.0006
     32 C         138.5523  138.9617  163.1596 C.2     1  UNL1        0.0115
@<TRIPOS>BOND
     1    21    22    1
     2    22    19    1
     3    19    20    2
     4    19    18    1
     5    18    23    1
     6    23    24    1
     7    24    25    2
     8    25    26    1
     9    26    27    2
    10    27    28    1
    11    28    29    1
    12    29    30    2
    13    30    31    1
    14    31    32    2
    15    18     1    1
    16     1     3    1
    17     3     4    2
    18     3     5    2
    19     3     6    1
    20     6     7   ar
    21     7     8   ar
    22     8     9   ar
    23     9    12    1
    24    12    13    1
    25    13    14    1
    26    14    15    1
    27    15    16    1
    28    16    17    1
    29     9    10   ar
    30    10    11   ar
    31    32    24    1
    32    11     6   ar
    33    32    27    1
    34    17    13    1
    35     1     2    1
@<TRIPOS>MOLECULE
*****
 32 35 0 0 0
SMALL
GASTEIGER

@<TRIPOS>ATOM
      1 N         143.0344  143.9230  160.2765 N.3     1  UNL1       -0.1696
      2 H         143.4178  144.8627  160.3793 H       1  UNL1        0.1494
      3 S         142.9478  143.3376  161.6548 S.O2    1  UNL1        0.0607
      4 O         142.5839  142.0067  161.0665 O.2     1  UNL1       -0.1530
      5 O         143.3117  144.6686  162.2431 O.2     1  UNL1       -0.1530
      6 C         142.8611  142.7521  163.0331 C.ar    1  UNL1        0.1222
      7 C         141.9195  141.6173  163.3080 C.ar    1  UNL1        0.0230
      8 C         141.8329  141.0319  164.6864 C.ar    1  UNL1        0.0383
      9 C         142.6878  141.5812  165.7897 C.ar    1  UNL1        0.1385
     10 C         143.6294  142.7160  165.5147 C.ar    1  UNL1        0.0383
     11 C         143.7161  143.3014  164.1364 C.ar    1  UNL1        0.0230
     12 O         142.6011  140.9956  167.1680 O.3     1  UNL1       -0.4792
     13 C         142.3668  141.8898  168.3494 C.3     1  UNL1        0.1659
     14 C         143.3773  142.2470  169.3988 C.3     1  UNL1        0.0435
     15 C         142.7159  143.1617  170.3867 C.3     1  UNL1        0.0038
     16 C         141.2967  143.3697  169.9478 C.3     1  UNL1        0.0038
     17 C         141.0810  142.5837  168.6886 C.3     1  UNL1        0.0435
     18 C         141.7984  144.0492  159.4361 C.3     1  UNL1        0.1781
     19 C         141.7934  143.5339  158.0274 C.2     1  UNL1        0.3334
     20 O         142.0409  142.0787  157.7603 O.2     1  UNL1       -0.2485
     21 C         142.0498  145.8834  156.9487 C.3     1  UNL1        0.2556
     22 O         141.5410  144.4737  156.8860 O.3     1  UNL1       -0.4434
     23 C         140.5672  144.6907  160.0044 C.3     1  UNL1        0.0567
     24 C         139.5789  143.8657  160.7742 C.2     1  UNL1        0.0000
     25 C         138.7220  142.7684  160.2160 C.2     1  UNL1        0.0942
     26 N         137.8874  142.2177  161.3341 N.2     1  UNL1       -0.2482
     27 C         138.2285  142.9747  162.5834 C.2     1  UNL1        0.0631
     28 C         137.7222  142.8682  163.9913 C.3     1  UNL1        0.0717
     29 C         138.2613  143.7802  165.0531 C.2     1  UNL1       -0.0198
     30 C         139.3067  144.7987  164.7071 C.2     1  UNL1       -0.0042
     31 C         139.8130  144.9053  163.2992 C.2     1  UNL1        0.0006
     32 C         139.2739  143.9933  162.2373 C.2     1  UNL1        0.0115
@<TRIPOS>BOND
     1    21    22    1
     2    22    19    1
     3    19    20    2
     4    19    18    1
     5    18    23    1
     6    23    24    1
     7    24    25    2
     8    25    26    1
     9    26    27    2
    10    27    28    1
    11    28    29    1
    12    29    30    2
    13    30    31    1
    14    31    32    2
    15    18     1    1
    16     1     3    1
    17     3     4    2
    18     3     5    2
    19     3     6    1
    20     6     7   ar
    21     7     8   ar
    22     8     9   ar
    23     9    12    1
    24    12    13    1
    25    13    14    1
    26    14    15    1
    27    15    16    1
    28    16    17    1
    29     9    10   ar
    30    10    11   ar
    31    32    24    1
    32    11     6   ar
    33    32    27    1
    34    17    13    1
    35     1     2    1
@<TRIPOS>MOLECULE
*****
 32 35 0 0 0
SMALL
GASTEIGER

@<TRIPOS>ATOM
      1 N         138.1836  138.7963  161.8671 N.3     1  UNL1       -0.1696
      2 H         137.7379  137.8791  161.8877 H       1  UNL1        0.1494
      3 S         138.4920  139.1598  163.2893 S.O2    1  UNL1        0.0607
      4 O         138.4302  140.6150  162.9307 O.2     1  UNL1       -0.1530
      5 O         138.5537  137.7047  163.6480 O.2     1  UNL1       -0.1530
      6 C         138.8003  139.5234  164.7116 C.ar    1  UNL1        0.1222
      7 C         139.6738  140.7055  165.0110 C.ar    1  UNL1        0.0230
      8 C         139.9821  141.0691  166.4333 C.ar    1  UNL1        0.0383
      9 C         139.4169  140.2506  167.5561 C.ar    1  UNL1        0.1385
     10 C         138.5434  139.0685  167.2566 C.ar    1  UNL1        0.0383
     11 C         138.2351  138.7049  165.8343 C.ar    1  UNL1        0.0230
     12 O         139.7253  140.6142  168.9783 O.3     1  UNL1       -0.4792
     13 C         141.0205  141.2915  169.3153 C.3     1  UNL1        0.1659
     14 C         141.1790  142.7075  169.7843 C.3     1  UNL1        0.0435
     15 C         142.6411  142.9629  170.0014 C.3     1  UNL1        0.0038
     16 C         143.3861  141.7048  169.6666 C.3     1  UNL1        0.0038
     17 C         142.3846  140.6718  169.2426 C.3     1  UNL1        0.0435
     18 C         139.2892  138.7179  160.8564 C.3     1  UNL1        0.1781
     19 C         139.0633  139.2111  159.4579 C.2     1  UNL1        0.3334
     20 O         137.7982  139.9404  159.1151 O.2     1  UNL1       -0.2485
     21 C         139.6980  138.8712  156.9617 C.3     1  UNL1        0.2556
     22 O         140.1025  138.9748  158.4024 O.3     1  UNL1       -0.4434
     23 C         140.6208  138.1463  161.2442 C.3     1  UNL1        0.0567
     24 C         141.6858  139.0406  161.8064 C.2     1  UNL1        0.0000
     25 C         142.3471  140.1814  161.0915 C.2     1  UNL1        0.0942
     26 N         143.3465  140.7968  162.0255 N.2     1  UNL1       -0.2482
     27 C         143.3028  140.0364  163.3178 C.2     1  UNL1        0.0631
     28 C         144.0650  140.1921  164.6002 C.3     1  UNL1        0.0717
     29 C         143.8008  139.2624  165.7473 C.2     1  UNL1       -0.0198
     30 C         142.7744  138.1770  165.6119 C.2     1  UNL1       -0.0042
     31 C         142.0122  138.0212  164.3294 C.2     1  UNL1        0.0006
     32 C         142.2764  138.9510  163.1824 C.2     1  UNL1        0.0115
@<TRIPOS>BOND
     1    21    22    1
     2    22    19    1
     3    19    20    2
     4    19    18    1
     5    18    23    1
     6    23    24    1
     7    24    25    2
     8    25    26    1
     9    26    27    2
    10    27    28    1
    11    28    29    1
    12    29    30    2
    13    30    31    1
    14    31    32    2
    15    18     1    1
    16     1     3    1
    17     3     4    2
    18     3     5    2
    19     3     6    1
    20     6     7   ar
    21     7     8   ar
    22     8     9   ar
    23     9    12    1
    24    12    13    1
    25    13    14    1
    26    14    15    1
    27    15    16    1
    28    16    17    1
    29     9    10   ar
    30    10    11   ar
    31    32    24    1
    32    11     6   ar
    33    32    27    1
    34    17    13    1
    35     1     2    1
@<TRIPOS>MOLECULE
*****
 32 35 0 0 0
SMALL
GASTEIGER

@<TRIPOS>ATOM
      1 N         138.9571  138.3527  160.2656 N.3     1  UNL1       -0.1696
      2 H         139.5524  137.5438  160.0876 H       1  UNL1        0.1494
      3 S         138.8338  138.4800  161.7551 S.O2    1  UNL1        0.0607
      4 O         137.5934  139.3055  161.5818 O.2     1  UNL1       -0.1530
      5 O         140.0742  137.6546  161.9284 O.2     1  UNL1       -0.1530
      6 C         138.7104  138.6074  163.2446 C.ar    1  UNL1        0.1222
      7 C         138.1598  139.8661  163.8466 C.ar    1  UNL1        0.0230
      8 C         138.0364  139.9934  165.3362 C.ar    1  UNL1        0.0383
      9 C         138.4637  138.8621  166.2236 C.ar    1  UNL1        0.1385
     10 C         139.0144  137.6034  165.6214 C.ar    1  UNL1        0.0383
     11 C         139.1377  137.4761  164.1320 C.ar    1  UNL1        0.0230
     12 O         138.3403  138.9894  167.7131 O.3     1  UNL1       -0.4792
     13 C         139.1419  140.0237  168.4463 C.3     1  UNL1        0.1659
     14 C         138.9433  140.4456  169.8720 C.3     1  UNL1        0.0435
     15 C         139.9615  141.5003  170.1895 C.3     1  UNL1        0.0038
     16 C         140.7894  141.7302  168.9600 C.3     1  UNL1        0.0038
     17 C         140.2829  140.8177  167.8827 C.3     1  UNL1        0.0435
     18 C         139.5161  139.4875  159.4596 C.3     1  UNL1        0.1781
     19 C         139.1899  139.6028  158.0000 C.2     1  UNL1        0.3334
     20 O         138.8942  140.9460  157.4014 O.2     1  UNL1       -0.2485
     21 C         139.5401  138.4646  155.6910 C.3     1  UNL1        0.2556
     22 O         139.1596  138.3748  157.1391 O.3     1  UNL1       -0.4434
     23 C         140.4013  140.5072  160.1131 C.3     1  UNL1        0.0567
     24 C         139.7955  141.6410  160.8861 C.2     1  UNL1        0.0000
     25 C         138.6605  142.5104  160.4323 C.2     1  UNL1        0.0942
     26 N         138.3820  143.5112  161.5144 N.2     1  UNL1       -0.2482
     27 C         139.3449  143.2603  162.6368 C.2     1  UNL1        0.0631
     28 C         139.5391  143.9351  163.9623 C.3     1  UNL1        0.0717
     29 C         140.6068  143.4540  164.8995 C.2     1  UNL1       -0.0198
     30 C         141.4805  142.2982  164.5112 C.2     1  UNL1       -0.0042
     31 C         141.2863  141.6234  163.1857 C.2     1  UNL1        0.0006
     32 C         140.2185  142.1045  162.2485 C.2     1  UNL1        0.0115
@<TRIPOS>BOND
     1    21    22    1
     2    22    19    1
     3    19    20    2
     4    19    18    1
     5    18    23    1
     6    23    24    1
     7    24    25    2
     8    25    26    1
     9    26    27    2
    10    27    28    1
    11    28    29    1
    12    29    30    2
    13    30    31    1
    14    31    32    2
    15    18     1    1
    16     1     3    1
    17     3     4    2
    18     3     5    2
    19     3     6    1
    20     6     7   ar
    21     7     8   ar
    22     8     9   ar
    23     9    12    1
    24    12    13    1
    25    13    14    1
    26    14    15    1
    27    15    16    1
    28    16    17    1
    29     9    10   ar
    30    10    11   ar
    31    32    24    1
    32    11     6   ar
    33    32    27    1
    34    17    13    1
    35     1     2    1
