@<TRIPOS>MOLECULE
*****
 36 39 0 0 0
SMALL
GASTEIGER

@<TRIPOS>ATOM
      1 N         143.9847  140.3507  161.9502 N.am    1  UNL1       -0.2996
      2 C         142.7311  140.4610  162.7665 C.2     1  UNL1        0.2353
      3 O         141.5452  141.2017  162.2234 O.2     1  UNL1       -0.2737
      4 H         144.7630  139.8645  162.3066 H       1  UNL1        0.1498
      5 C         142.6635  139.8305  164.1258 C.3     1  UNL1        0.1166
      6 N         143.5024  138.8145  163.4090 N.3     1  UNL1       -0.3162
      7 C         141.8481  141.0656  164.3706 C.3     1  UNL1        0.0739
      8 C         141.2564  141.3173  165.7258 C.3     1  UNL1        0.2039
      9 N         141.4802  140.3339  166.8363 N.pl3   1  UNL1       -0.1931
     10 C         142.2956  139.0990  166.5916 C.3     1  UNL1        0.2039
     11 C         142.8873  138.8473  165.2363 C.3     1  UNL1        0.0739
     12 H         143.6417  139.1095  162.4426 H       1  UNL1        0.1192
     13 H         143.0290  137.9112  163.4240 H       1  UNL1        0.1192
     14 C         140.8885  140.5857  168.1915 C.2     1  UNL1        0.3205
     15 N         139.5835  139.9502  168.5699 N.2     1  UNL1        0.0097
     16 C         138.9918  140.2019  169.9250 C.2     1  UNL1        0.4717
     17 N         139.7051  141.0892  170.9019 N.2     1  UNL1        0.0158
     18 C         141.0100  141.7246  170.5234 C.2     1  UNL1        0.3714
     19 N         141.9353  142.6386  171.2708 N.2     1  UNL1       -0.0339
     20 C         143.0989  142.9516  170.3775 C.2     1  UNL1        0.2323
     21 C         142.8928  142.2312  169.0780 C.2     1  UNL1        0.0486
     22 C         141.6017  141.4729  169.1682 C.3     1  UNL1        0.2428
     23 C         144.0523  140.9811  160.5907 C.3     1  UNL1        0.1138
     24 C         143.7032  140.1776  159.3732 C.ar    1  UNL1       -0.0028
     25 C         144.0599  140.6894  158.0091 C.ar    1  UNL1       -0.0018
     26 C         143.7108  139.8857  156.7916 C.ar    1  UNL1        0.0111
     27 C         143.0050  138.5703  156.9381 C.ar    1  UNL1        0.0577
     28 CL        142.6559  137.7667  155.7207 Cl      1  UNL1       -0.0822
     29 C         142.6483  138.0585  158.3022 C.ar    1  UNL1        0.0111
     30 C         142.9974  138.8621  159.5198 C.ar    1  UNL1       -0.0018
     31 C         144.4690  142.4151  160.4489 C.3     1  UNL1        0.1135
     32 C         143.2115  144.8725  163.3001 C.3     1  UNL1        0.0946
     33 C         143.9808  143.7948  162.5955 C.2     1  UNL1        0.2230
     34 O         145.0315  143.0188  163.3331 O.2     1  UNL1       -0.2751
     35 N         143.6996  143.4929  161.1534 N.am    1  UNL1       -0.3024
     36 H         143.0100  144.0022  160.6693 H       1  UNL1        0.1495
@<TRIPOS>BOND
     1    32    33    1
     2    33    34    2
     3    33    35   am
     4    35    31    1
     5    31    23    1
     6    23     1    1
     7     1     2   am
     8     2     3    2
     9     2     5    1
    10     5     6    1
    11     5     7    1
    12     7     8    1
    13     8     9    1
    14     9    14    1
    15    14    15    2
    16    15    16    1
    17    16    17    2
    18    17    18    1
    19    18    19    2
    20    19    20    1
    21    20    21    2
    22    21    22    1
    23     9    10    1
    24    10    11    1
    25    23    24    1
    26    24    25   ar
    27    25    26   ar
    28    26    27   ar
    29    27    28    1
    30    27    29   ar
    31    29    30   ar
    32    11     5    1
    33    30    24   ar
    34    22    14    1
    35    22    18    1
    36    35    36    1
    37     1     4    1
    38     6    12    1
    39     6    13    1
@<TRIPOS>MOLECULE
*****
 36 39 0 0 0
SMALL
GASTEIGER

@<TRIPOS>ATOM
      1 N         141.3939  139.5121  161.2613 N.am    1  UNL1       -0.2996
      2 C         140.8918  138.6588  162.3882 C.2     1  UNL1        0.2353
      3 O         141.3241  137.2265  162.4947 O.2     1  UNL1       -0.2737
      4 H         141.1101  140.4522  161.1915 H       1  UNL1        0.1498
      5 C         139.9573  139.2381  163.4086 C.3     1  UNL1        0.1166
      6 N         139.0907  139.3179  162.1870 N.3     1  UNL1       -0.3162
      7 C         141.1485  138.9572  164.2760 C.3     1  UNL1        0.0739
      8 C         141.1043  139.2832  165.7394 C.3     1  UNL1        0.2039
      9 N         139.8689  139.8902  166.3356 N.pl3   1  UNL1       -0.1931
     10 C         138.6777  140.1712  165.4684 C.3     1  UNL1        0.2039
     11 C         138.7220  139.8451  164.0049 C.3     1  UNL1        0.0739
     12 H         139.6005  138.9499  161.3839 H       1  UNL1        0.1192
     13 H         138.8377  140.2905  162.0126 H       1  UNL1        0.1192
     14 C         139.8248  140.2162  167.7991 C.2     1  UNL1        0.3205
     15 N         138.6983  139.7053  168.6477 N.2     1  UNL1        0.0097
     16 C         138.6541  140.0312  170.1111 C.2     1  UNL1        0.4717
     17 N         139.7364  140.8683  170.7261 N.2     1  UNL1        0.0158
     18 C         140.8629  141.3792  169.8775 C.2     1  UNL1        0.3714
     19 N         142.0620  142.2201  170.2015 N.2     1  UNL1       -0.0339
     20 C         142.8473  142.4138  168.9383 C.2     1  UNL1        0.2323
     21 C         142.1335  141.6926  167.8335 C.2     1  UNL1        0.0486
     22 C         140.9070  141.0532  168.4140 C.3     1  UNL1        0.2428
     23 C         142.3283  138.9329  160.2408 C.3     1  UNL1        0.1138
     24 C         141.7815  138.3188  158.9863 C.ar    1  UNL1       -0.0028
     25 C         140.3470  138.5389  158.6070 C.ar    1  UNL1       -0.0018
     26 C         139.8003  137.9248  157.3524 C.ar    1  UNL1        0.0111
     27 C         140.6879  137.0905  156.4771 C.ar    1  UNL1        0.0577
     28 CL        140.1412  136.4764  155.2227 Cl      1  UNL1       -0.0822
     29 C         142.1223  136.8704  156.8565 C.ar    1  UNL1        0.0111
     30 C         142.6692  137.4845  158.1110 C.ar    1  UNL1       -0.0018
     31 C         143.8095  138.9678  160.4749 C.3     1  UNL1        0.1135
     32 C         144.9538  139.4485  164.2445 C.3     1  UNL1        0.0946
     33 C         144.4027  139.7463  162.8816 C.2     1  UNL1        0.2230
     34 O         143.8936  141.1207  162.5624 O.2     1  UNL1       -0.2751
     35 N         144.3606  138.6698  161.8379 N.am    1  UNL1       -0.3024
     36 H         144.6948  137.7678  162.0473 H       1  UNL1        0.1495
@<TRIPOS>BOND
     1    32    33    1
     2    33    34    2
     3    33    35   am
     4    35    31    1
     5    31    23    1
     6    23     1    1
     7     1     2   am
     8     2     3    2
     9     2     5    1
    10     5     6    1
    11     5     7    1
    12     7     8    1
    13     8     9    1
    14     9    14    1
    15    14    15    2
    16    15    16    1
    17    16    17    2
    18    17    18    1
    19    18    19    2
    20    19    20    1
    21    20    21    2
    22    21    22    1
    23     9    10    1
    24    10    11    1
    25    23    24    1
    26    24    25   ar
    27    25    26   ar
    28    26    27   ar
    29    27    28    1
    30    27    29   ar
    31    29    30   ar
    32    11     5    1
    33    30    24   ar
    34    22    14    1
    35    22    18    1
    36    35    36    1
    37     1     4    1
    38     6    12    1
    39     6    13    1
@<TRIPOS>MOLECULE
*****
 36 39 0 0 0
SMALL
GASTEIGER

@<TRIPOS>ATOM
      1 N         140.2029  142.1727  164.5776 N.am    1  UNL1       -0.2996
      2 C         139.1190  143.0931  164.1000 C.2     1  UNL1        0.2353
      3 O         137.7119  142.9110  164.5866 O.2     1  UNL1       -0.2737
      4 H         141.1264  142.2923  164.2582 H       1  UNL1        0.1498
      5 C         139.4424  144.1957  163.1357 C.3     1  UNL1        0.1166
      6 N         139.1437  145.0032  164.3639 N.3     1  UNL1       -0.3162
      7 C         139.6288  143.0052  162.2423 C.3     1  UNL1        0.0739
      8 C         140.0348  143.1977  160.8113 C.3     1  UNL1        0.2039
      9 N         140.2544  144.5808  160.2735 N.pl3   1  UNL1       -0.1931
     10 C         140.0681  145.7712  161.1668 C.3     1  UNL1        0.2039
     11 C         139.6620  145.5786  162.5980 C.3     1  UNL1        0.0739
     12 H         138.8992  144.3772  165.1313 H       1  UNL1        0.1192
     13 H         138.3627  145.6318  164.1760 H       1  UNL1        0.1192
     14 C         140.6605  144.7733  158.8424 C.2     1  UNL1        0.3205
     15 N         141.8102  145.6751  158.5038 N.2     1  UNL1        0.0097
     16 C         142.2162  145.8676  157.0727 C.2     1  UNL1        0.4717
     17 N         141.4725  145.1582  155.9801 N.2     1  UNL1        0.0158
     18 C         140.3228  144.2563  156.3187 C.2     1  UNL1        0.3714
     19 N         139.4086  143.4311  155.4624 N.2     1  UNL1       -0.0339
     20 C         138.4375  142.7286  156.3644 C.2     1  UNL1        0.2323
     21 C         138.7516  143.1196  157.7781 C.2     1  UNL1        0.0486
     22 C         139.9168  144.0639  157.7498 C.3     1  UNL1        0.2428
     23 C         139.8796  141.0701  165.5419 C.3     1  UNL1        0.1138
     24 C         140.0584  141.2861  167.0154 C.ar    1  UNL1       -0.0028
     25 C         140.6214  142.5813  167.5208 C.ar    1  UNL1       -0.0018
     26 C         140.8002  142.7972  168.9944 C.ar    1  UNL1        0.0111
     27 C         140.4160  141.7180  169.9626 C.ar    1  UNL1        0.0577
     28 CL        140.5948  141.9338  171.4361 Cl      1  UNL1       -0.0822
     29 C         139.8530  140.4227  169.4573 C.ar    1  UNL1        0.0111
     30 C         139.6741  140.2068  167.9837 C.ar    1  UNL1       -0.0018
     31 C         139.3775  139.7516  165.0326 C.3     1  UNL1        0.1135
     32 C         137.6760  138.5832  161.6429 C.3     1  UNL1        0.0946
     33 C         138.6022  138.6283  162.8218 C.2     1  UNL1        0.2230
     34 O         139.6797  137.5951  162.9691 O.2     1  UNL1       -0.2751
     35 N         138.4511  139.7066  163.8536 N.am    1  UNL1       -0.3024
     36 H         137.7440  140.3847  163.7570 H       1  UNL1        0.1495
@<TRIPOS>BOND
     1    32    33    1
     2    33    34    2
     3    33    35   am
     4    35    31    1
     5    31    23    1
     6    23     1    1
     7     1     2   am
     8     2     3    2
     9     2     5    1
    10     5     6    1
    11     5     7    1
    12     7     8    1
    13     8     9    1
    14     9    14    1
    15    14    15    2
    16    15    16    1
    17    16    17    2
    18    17    18    1
    19    18    19    2
    20    19    20    1
    21    20    21    2
    22    21    22    1
    23     9    10    1
    24    10    11    1
    25    23    24    1
    26    24    25   ar
    27    25    26   ar
    28    26    27   ar
    29    27    28    1
    30    27    29   ar
    31    29    30   ar
    32    11     5    1
    33    30    24   ar
    34    22    14    1
    35    22    18    1
    36    35    36    1
    37     1     4    1
    38     6    12    1
    39     6    13    1
@<TRIPOS>MOLECULE
*****
 36 39 0 0 0
SMALL
GASTEIGER

@<TRIPOS>ATOM
      1 N         139.1012  141.7180  160.2609 N.am    1  UNL1       -0.2996
      2 C         138.3547  142.0012  161.5307 C.2     1  UNL1        0.2353
      3 O         137.5402  143.2543  161.6584 O.2     1  UNL1       -0.2737
      4 H         139.6358  140.8955  160.1771 H       1  UNL1        0.1498
      5 C         138.4228  141.0313  162.6729 C.3     1  UNL1        0.1166
      6 N         137.0326  140.7572  162.1810 N.3     1  UNL1       -0.3162
      7 C         139.7895  141.6422  162.7681 C.3     1  UNL1        0.0739
      8 C         140.7414  141.1881  163.8346 C.3     1  UNL1        0.2039
      9 N         140.3267  140.1229  164.8060 N.pl3   1  UNL1       -0.1931
     10 C         138.9601  139.5119  164.7108 C.3     1  UNL1        0.2039
     11 C         138.0081  139.9661  163.6442 C.3     1  UNL1        0.0739
     12 H         136.8302  141.3574  161.3816 H       1  UNL1        0.1192
     13 H         136.3641  140.9481  162.9274 H       1  UNL1        0.1192
     14 C         141.2786  139.6688  165.8726 C.2     1  UNL1        0.3205
     15 N         142.5503  138.9690  165.4944 N.2     1  UNL1        0.0097
     16 C         143.5023  138.5149  166.5608 C.2     1  UNL1        0.4717
     17 N         143.1826  138.7605  168.0057 N.2     1  UNL1        0.0158
     18 C         141.9108  139.4602  168.3839 C.2     1  UNL1        0.3714
     19 N         141.3312  139.8389  169.7146 N.2     1  UNL1       -0.0339
     20 C         140.0210  140.5271  169.4704 C.2     1  UNL1        0.2323
     21 C         139.7908  140.5738  167.9888 C.2     1  UNL1        0.0486
     22 C         140.9589  139.9143  167.3174 C.3     1  UNL1        0.2428
     23 C         139.0332  142.6879  159.1186 C.3     1  UNL1        0.1138
     24 C         138.1315  142.4110  157.9523 C.ar    1  UNL1       -0.0028
     25 C         137.9443  143.4492  156.8859 C.ar    1  UNL1       -0.0018
     26 C         137.0426  143.1722  155.7197 C.ar    1  UNL1        0.0111
     27 C         136.3280  141.8572  155.6198 C.ar    1  UNL1        0.0577
     28 CL        135.4263  141.5802  154.4536 Cl      1  UNL1       -0.0822
     29 C         136.5152  140.8190  156.6862 C.ar    1  UNL1        0.0111
     30 C         137.4169  141.0959  157.8525 C.ar    1  UNL1       -0.0018
     31 C         139.8669  143.9347  159.1427 C.3     1  UNL1        0.1135
     32 C         140.7488  145.8074  162.5288 C.3     1  UNL1        0.0946
     33 C         140.8401  144.8665  161.3641 C.2     1  UNL1        0.2230
     34 O         141.9959  143.9166  161.2562 O.2     1  UNL1       -0.2751
     35 N         139.7755  144.8756  160.3074 N.am    1  UNL1       -0.3024
     36 H         139.0169  145.4990  160.3783 H       1  UNL1        0.1495
@<TRIPOS>BOND
     1    32    33    1
     2    33    34    2
     3    33    35   am
     4    35    31    1
     5    31    23    1
     6    23     1    1
     7     1     2   am
     8     2     3    2
     9     2     5    1
    10     5     6    1
    11     5     7    1
    12     7     8    1
    13     8     9    1
    14     9    14    1
    15    14    15    2
    16    15    16    1
    17    16    17    2
    18    17    18    1
    19    18    19    2
    20    19    20    1
    21    20    21    2
    22    21    22    1
    23     9    10    1
    24    10    11    1
    25    23    24    1
    26    24    25   ar
    27    25    26   ar
    28    26    27   ar
    29    27    28    1
    30    27    29   ar
    31    29    30   ar
    32    11     5    1
    33    30    24   ar
    34    22    14    1
    35    22    18    1
    36    35    36    1
    37     1     4    1
    38     6    12    1
    39     6    13    1
@<TRIPOS>MOLECULE
*****
 36 39 0 0 0
SMALL
GASTEIGER

@<TRIPOS>ATOM
      1 N         142.8449  142.2230  160.3854 N.am    1  UNL1       -0.2996
      2 C         143.4608  142.6731  161.6770 C.2     1  UNL1        0.2353
      3 O         144.0939  144.0294  161.7736 O.2     1  UNL1       -0.2737
      4 H         142.4294  141.3328  160.3221 H       1  UNL1        0.1498
      5 C         143.4435  141.7666  162.8720 C.3     1  UNL1        0.1166
      6 N         144.6244  141.2057  162.1368 N.3     1  UNL1       -0.3162
      7 C         142.2684  142.6423  163.1923 C.3     1  UNL1        0.0739
      8 C         141.4863  142.4168  164.4521 C.3     1  UNL1        0.2039
      9 N         141.8791  141.3155  165.3918 N.pl3   1  UNL1       -0.1931
     10 C         143.0541  140.4398  165.0716 C.3     1  UNL1        0.2039
     11 C         143.8362  140.6654  163.8117 C.3     1  UNL1        0.0739
     12 H         144.7700  141.7320  161.2753 H       1  UNL1        0.1192
     13 H         144.4508  140.2261  161.9116 H       1  UNL1        0.1192
     14 C         141.0969  141.0900  166.6517 C.2     1  UNL1        0.3205
     15 N         141.4501  141.8447  167.8990 N.2     1  UNL1        0.0097
     16 C         140.6679  141.6192  169.1588 C.2     1  UNL1        0.4717
     17 N         139.5324  140.6390  169.1715 N.2     1  UNL1        0.0158
     18 C         139.1793  139.8844  167.9242 C.2     1  UNL1        0.3714
     19 N         138.1202  138.8621  167.6356 N.2     1  UNL1       -0.0339
     20 C         138.2478  138.4558  166.1973 C.2     1  UNL1        0.2323
     21 C         139.3858  139.2270  165.5970 C.2     1  UNL1        0.0486
     22 C         139.9615  140.1099  166.6643 C.3     1  UNL1        0.2428
     23 C         142.8622  143.1295  159.1904 C.3     1  UNL1        0.1138
     24 C         143.8229  142.8719  158.0676 C.ar    1  UNL1       -0.0028
     25 C         145.2598  142.5618  158.3661 C.ar    1  UNL1       -0.0018
     26 C         146.2204  142.3042  157.2433 C.ar    1  UNL1        0.0111
     27 C         145.7443  142.3568  155.8219 C.ar    1  UNL1        0.0577
     28 CL        146.7049  142.0993  154.6991 Cl      1  UNL1       -0.0822
     29 C         144.3074  142.6670  155.5233 C.ar    1  UNL1        0.0111
     30 C         143.3467  142.9245  156.6461 C.ar    1  UNL1       -0.0018
     31 C         141.9188  144.2934  159.1182 C.3     1  UNL1        0.1135
     32 C         140.1660  145.9690  162.2598 C.3     1  UNL1        0.0946
     33 C         140.3869  145.1066  161.0526 C.2     1  UNL1        0.2230
     34 O         139.2967  144.1950  160.5725 O.2     1  UNL1       -0.2751
     35 N         141.6979  145.1558  160.3254 N.am    1  UNL1       -0.3024
     36 H         142.4135  145.7541  160.6405 H       1  UNL1        0.1495
@<TRIPOS>BOND
     1    32    33    1
     2    33    34    2
     3    33    35   am
     4    35    31    1
     5    31    23    1
     6    23     1    1
     7     1     2   am
     8     2     3    2
     9     2     5    1
    10     5     6    1
    11     5     7    1
    12     7     8    1
    13     8     9    1
    14     9    14    1
    15    14    15    2
    16    15    16    1
    17    16    17    2
    18    17    18    1
    19    18    19    2
    20    19    20    1
    21    20    21    2
    22    21    22    1
    23     9    10    1
    24    10    11    1
    25    23    24    1
    26    24    25   ar
    27    25    26   ar
    28    26    27   ar
    29    27    28    1
    30    27    29   ar
    31    29    30   ar
    32    11     5    1
    33    30    24   ar
    34    22    14    1
    35    22    18    1
    36    35    36    1
    37     1     4    1
    38     6    12    1
    39     6    13    1
@<TRIPOS>MOLECULE
*****
 36 39 0 0 0
SMALL
GASTEIGER

@<TRIPOS>ATOM
      1 N         139.9683  142.1280  164.4777 N.am    1  UNL1       -0.2996
      2 C         139.2616  143.3990  164.1101 C.2     1  UNL1        0.2353
      3 O         137.9827  143.7725  164.7994 O.2     1  UNL1       -0.2737
      4 H         140.8076  141.8829  164.0253 H       1  UNL1        0.1498
      5 C         139.8337  144.2965  163.0532 C.3     1  UNL1        0.1166
      6 N         139.7376  145.2658  164.1938 N.3     1  UNL1       -0.3162
      7 C         139.7312  143.0154  162.2796 C.3     1  UNL1        0.0739
      8 C         140.1674  142.9685  160.8453 C.3     1  UNL1        0.2039
      9 N         140.7062  144.2027  160.1844 N.pl3   1  UNL1       -0.1931
     10 C         140.8088  145.4837  160.9579 C.3     1  UNL1        0.2039
     11 C         140.3726  145.5306  162.3924 C.3     1  UNL1        0.0739
     12 H         139.3542  144.7917  165.0115 H       1  UNL1        0.1192
     13 H         139.1268  146.0396  163.9319 H       1  UNL1        0.1192
     14 C         141.1425  144.1557  158.7500 C.2     1  UNL1        0.3205
     15 N         140.2745  144.7527  157.6822 N.2     1  UNL1        0.0097
     16 C         140.7107  144.7057  156.2478 C.2     1  UNL1        0.4717
     17 N         142.0149  144.0618  155.8812 N.2     1  UNL1        0.0158
     18 C         142.8829  143.4648  156.9490 C.2     1  UNL1        0.3714
     19 N         144.2104  142.7689  156.8907 N.2     1  UNL1       -0.0339
     20 C         144.5947  142.3858  158.2891 C.2     1  UNL1        0.2323
     21 C         143.5046  142.8449  159.2117 C.2     1  UNL1        0.0486
     22 C         142.4467  143.5118  158.3834 C.3     1  UNL1        0.2428
     23 C         139.3961  141.2304  165.5346 C.3     1  UNL1        0.1138
     24 C         139.8753  141.3404  166.9518 C.ar    1  UNL1       -0.0028
     25 C         139.6786  140.1957  167.9010 C.ar    1  UNL1       -0.0018
     26 C         140.1578  140.3058  169.3181 C.ar    1  UNL1        0.0111
     27 C         140.8337  141.5604  169.7861 C.ar    1  UNL1        0.0577
     28 CL        141.3129  141.6704  171.2031 Cl      1  UNL1       -0.0822
     29 C         141.0305  142.7050  168.8368 C.ar    1  UNL1        0.0111
     30 C         140.5513  142.5951  167.4197 C.ar    1  UNL1       -0.0018
     31 C         138.3449  140.2230  165.1744 C.3     1  UNL1        0.1135
     32 C         137.7700  139.3047  161.3565 C.3     1  UNL1        0.0946
     33 C         137.6945  140.0317  162.6663 C.2     1  UNL1        0.2230
     34 O         136.8930  141.2947  162.7779 O.2     1  UNL1       -0.2751
     35 N         138.4204  139.4958  163.8645 N.am    1  UNL1       -0.3024
     36 H         138.9464  138.6669  163.7913 H       1  UNL1        0.1495
@<TRIPOS>BOND
     1    32    33    1
     2    33    34    2
     3    33    35   am
     4    35    31    1
     5    31    23    1
     6    23     1    1
     7     1     2   am
     8     2     3    2
     9     2     5    1
    10     5     6    1
    11     5     7    1
    12     7     8    1
    13     8     9    1
    14     9    14    1
    15    14    15    2
    16    15    16    1
    17    16    17    2
    18    17    18    1
    19    18    19    2
    20    19    20    1
    21    20    21    2
    22    21    22    1
    23     9    10    1
    24    10    11    1
    25    23    24    1
    26    24    25   ar
    27    25    26   ar
    28    26    27   ar
    29    27    28    1
    30    27    29   ar
    31    29    30   ar
    32    11     5    1
    33    30    24   ar
    34    22    14    1
    35    22    18    1
    36    35    36    1
    37     1     4    1
    38     6    12    1
    39     6    13    1
@<TRIPOS>MOLECULE
*****
 36 39 0 0 0
SMALL
GASTEIGER

@<TRIPOS>ATOM
      1 N         142.6392  141.3874  161.3516 N.am    1  UNL1       -0.2996
      2 C         143.7320  141.0934  162.3362 C.2     1  UNL1        0.2353
      3 O         145.0912  141.7006  162.1515 O.2     1  UNL1       -0.2737
      4 H         141.7471  140.9889  161.4729 H       1  UNL1        0.1498
      5 C         143.4657  140.1923  163.5054 C.3     1  UNL1        0.1166
      6 N         144.5431  139.4105  162.8142 N.3     1  UNL1       -0.3162
      7 C         142.4807  141.2872  163.7905 C.3     1  UNL1        0.0739
      8 C         141.6036  141.2094  165.0047 C.3     1  UNL1        0.2039
      9 N         141.7113  140.0367  165.9340 N.pl3   1  UNL1       -0.1931
     10 C         142.6962  138.9419  165.6489 C.3     1  UNL1        0.2039
     11 C         143.5734  139.0198  164.4346 C.3     1  UNL1        0.0739
     12 H         144.8389  139.9082  161.9745 H       1  UNL1        0.1192
     13 H         144.1838  138.4915  162.5559 H       1  UNL1        0.1192
     14 C         140.8341  139.9590  167.1483 C.2     1  UNL1        0.3205
     15 N         139.3893  139.5813  167.0069 N.2     1  UNL1        0.0097
     16 C         138.5122  139.5035  168.2211 C.2     1  UNL1        0.4717
     17 N         139.0797  139.8035  169.5769 N.2     1  UNL1        0.0158
     18 C         140.5245  140.1812  169.7183 C.2     1  UNL1        0.3714
     19 N         141.3583  140.5292  170.9156 N.2     1  UNL1       -0.0339
     20 C         142.7509  140.8221  170.4412 C.2     1  UNL1        0.2323
     21 C         142.7777  140.6551  168.9508 C.2     1  UNL1        0.0486
     22 C         141.4017  140.2589  168.5040 C.3     1  UNL1        0.2428
     23 C         142.9055  142.2885  160.1824 C.3     1  UNL1        0.1138
     24 C         143.6279  141.7610  158.9782 C.ar    1  UNL1       -0.0028
     25 C         144.7927  142.5171  158.4114 C.ar    1  UNL1       -0.0018
     26 C         145.5150  141.9895  157.2072 C.ar    1  UNL1        0.0111
     27 C         145.0725  140.7058  156.5699 C.ar    1  UNL1        0.0577
     28 CL        145.7947  140.1783  155.3659 Cl      1  UNL1       -0.0822
     29 C         143.9077  139.9497  157.1368 C.ar    1  UNL1        0.0111
     30 C         143.1853  140.4772  158.3409 C.ar    1  UNL1       -0.0018
     31 C         142.4495  143.7170  160.2173 C.3     1  UNL1        0.1135
     32 C         142.0357  145.4351  163.7708 C.3     1  UNL1        0.0946
     33 C         141.7563  144.5880  162.5649 C.2     1  UNL1        0.2230
     34 O         140.5042  143.7644  162.5006 O.2     1  UNL1       -0.2751
     35 N         142.7290  144.5643  161.4232 N.am    1  UNL1       -0.3024
     36 H         143.5507  145.1048  161.4654 H       1  UNL1        0.1495
@<TRIPOS>BOND
     1    32    33    1
     2    33    34    2
     3    33    35   am
     4    35    31    1
     5    31    23    1
     6    23     1    1
     7     1     2   am
     8     2     3    2
     9     2     5    1
    10     5     6    1
    11     5     7    1
    12     7     8    1
    13     8     9    1
    14     9    14    1
    15    14    15    2
    16    15    16    1
    17    16    17    2
    18    17    18    1
    19    18    19    2
    20    19    20    1
    21    20    21    2
    22    21    22    1
    23     9    10    1
    24    10    11    1
    25    23    24    1
    26    24    25   ar
    27    25    26   ar
    28    26    27   ar
    29    27    28    1
    30    27    29   ar
    31    29    30   ar
    32    11     5    1
    33    30    24   ar
    34    22    14    1
    35    22    18    1
    36    35    36    1
    37     1     4    1
    38     6    12    1
    39     6    13    1
@<TRIPOS>MOLECULE
*****
 36 39 0 0 0
SMALL
GASTEIGER

@<TRIPOS>ATOM
      1 N         140.5799  142.3937  162.3171 N.am    1  UNL1       -0.2996
      2 C         141.7631  141.5012  162.5485 C.2     1  UNL1        0.2353
      3 O         142.8750  141.4540  161.5428 O.2     1  UNL1       -0.2737
      4 H         139.8501  142.4247  162.9772 H       1  UNL1        0.1498
      5 C         141.8344  140.6560  163.7856 C.3     1  UNL1        0.1166
      6 N         142.5445  139.7587  162.8160 N.3     1  UNL1       -0.3162
      7 C         141.0994  141.8470  164.3257 C.3     1  UNL1        0.0739
      8 C         140.6823  141.8811  165.7661 C.3     1  UNL1        0.2039
      9 N         141.0002  140.7242  166.6666 N.pl3   1  UNL1       -0.1931
     10 C         141.7352  139.5333  166.1265 C.3     1  UNL1        0.2039
     11 C         142.1522  139.4993  164.6861 C.3     1  UNL1        0.0739
     12 H         142.5789  140.2069  161.9004 H       1  UNL1        0.1192
     13 H         142.0435  138.8733  162.7425 H       1  UNL1        0.1192
     14 C         140.5831  140.7583  168.1070 C.2     1  UNL1        0.3205
     15 N         139.3642  140.0064  168.5529 N.2     1  UNL1        0.0097
     16 C         138.9471  140.0405  169.9932 C.2     1  UNL1        0.4717
     17 N         139.7490  140.8266  170.9879 N.2     1  UNL1        0.0158
     18 C         140.9679  141.5785  170.5420 C.2     1  UNL1        0.3714
     19 N         141.9486  142.4335  171.2885 N.2     1  UNL1       -0.0339
     20 C         142.9718  142.9278  170.3093 C.2     1  UNL1        0.2323
     21 C         142.6235  142.3783  168.9578 C.2     1  UNL1        0.0486
     22 C         141.3850  141.5443  169.1016 C.3     1  UNL1        0.2428
     23 C         140.5085  143.2389  161.0800 C.3     1  UNL1        0.1138
     24 C         139.7117  142.7724  159.8978 C.ar    1  UNL1       -0.0028
     25 C         138.9408  141.4878  159.9727 C.ar    1  UNL1       -0.0018
     26 C         138.1440  141.0214  158.7905 C.ar    1  UNL1        0.0111
     27 C         138.1180  141.8394  157.5336 C.ar    1  UNL1        0.0577
     28 CL        137.3212  141.3730  156.3515 Cl      1  UNL1       -0.0822
     29 C         138.8888  143.1240  157.4587 C.ar    1  UNL1        0.0111
     30 C         139.6857  143.5905  158.6408 C.ar    1  UNL1       -0.0018
     31 C         141.2340  144.5506  161.0250 C.3     1  UNL1        0.1135
     32 C         143.7812  145.2309  163.9914 C.3     1  UNL1        0.0946
     33 C         142.4950  145.0532  163.2402 C.2     1  UNL1        0.2230
     34 O         141.1836  145.2002  163.9533 O.2     1  UNL1       -0.2751
     35 N         142.5203  144.7284  161.7761 N.am    1  UNL1       -0.3024
     36 H         143.3810  144.6319  161.3080 H       1  UNL1        0.1495
@<TRIPOS>BOND
     1    32    33    1
     2    33    34    2
     3    33    35   am
     4    35    31    1
     5    31    23    1
     6    23     1    1
     7     1     2   am
     8     2     3    2
     9     2     5    1
    10     5     6    1
    11     5     7    1
    12     7     8    1
    13     8     9    1
    14     9    14    1
    15    14    15    2
    16    15    16    1
    17    16    17    2
    18    17    18    1
    19    18    19    2
    20    19    20    1
    21    20    21    2
    22    21    22    1
    23     9    10    1
    24    10    11    1
    25    23    24    1
    26    24    25   ar
    27    25    26   ar
    28    26    27   ar
    29    27    28    1
    30    27    29   ar
    31    29    30   ar
    32    11     5    1
    33    30    24   ar
    34    22    14    1
    35    22    18    1
    36    35    36    1
    37     1     4    1
    38     6    12    1
    39     6    13    1
@<TRIPOS>MOLECULE
*****
 36 39 0 0 0
SMALL
GASTEIGER

@<TRIPOS>ATOM
      1 N         140.8800  138.8299  164.8166 N.am    1  UNL1       -0.2996
      2 C         141.5170  139.7366  163.8056 C.2     1  UNL1        0.2353
      3 O         141.1832  141.1990  163.7939 O.2     1  UNL1       -0.2737
      4 H         141.0991  137.8701  164.8242 H       1  UNL1        0.1498
      5 C         142.4879  139.1809  162.8063 C.3     1  UNL1        0.1166
      6 N         142.9568  138.4762  164.0446 N.3     1  UNL1       -0.3162
      7 C         141.6818  140.0786  161.9150 C.3     1  UNL1        0.0739
      8 C         142.0093  140.1759  160.4545 C.3     1  UNL1        0.2039
      9 N         143.1431  139.3754  159.8852 N.pl3   1  UNL1       -0.1931
     10 C         143.9491  138.4777  160.7764 C.3     1  UNL1        0.2039
     11 C         143.6215  138.3805  162.2370 C.3     1  UNL1        0.0739
     12 H         142.3780  138.7579  164.8359 H       1  UNL1        0.1192
     13 H         143.9289  138.7238  164.2292 H       1  UNL1        0.1192
     14 C         143.4706  139.4727  158.4246 C.2     1  UNL1        0.3205
     15 N         144.5322  140.4231  157.9557 N.2     1  UNL1        0.0097
     16 C         144.8598  140.5204  156.4953 C.2     1  UNL1        0.4717
     17 N         144.1258  139.6673  155.5035 N.2     1  UNL1        0.0158
     18 C         143.0642  138.7169  155.9723 C.2     1  UNL1        0.3714
     19 N         142.1795  137.7567  155.2339 N.2     1  UNL1       -0.0339
     20 C         141.3052  137.0660  156.2381 C.2     1  UNL1        0.2323
     21 C         141.6495  137.5993  157.5971 C.2     1  UNL1        0.0486
     22 C         142.7366  138.6196  157.4329 C.3     1  UNL1        0.2428
     23 C         139.9091  139.3856  165.8160 C.3     1  UNL1        0.1138
     24 C         140.3816  139.7707  167.1866 C.ar    1  UNL1       -0.0028
     25 C         139.3850  140.0658  168.2680 C.ar    1  UNL1       -0.0018
     26 C         139.8575  140.4509  169.6386 C.ar    1  UNL1        0.0111
     27 C         141.3266  140.5408  169.9277 C.ar    1  UNL1        0.0577
     28 CL        141.7991  140.9258  171.2982 Cl      1  UNL1       -0.0822
     29 C         142.3232  140.2456  168.8463 C.ar    1  UNL1        0.0111
     30 C         141.8507  139.8605  167.4757 C.ar    1  UNL1       -0.0018
     31 C         138.4658  139.5562  165.4447 C.3     1  UNL1        0.1135
     32 C         137.7184  140.3308  161.6248 C.3     1  UNL1        0.0946
     33 C         138.0887  139.5881  162.8743 C.2     1  UNL1        0.2230
     34 O         138.4520  138.1346  162.8030 O.2     1  UNL1       -0.2751
     35 N         138.0956  140.2990  164.1952 N.am    1  UNL1       -0.3024
     36 H         137.8571  141.2530  164.2420 H       1  UNL1        0.1495
@<TRIPOS>BOND
     1    32    33    1
     2    33    34    2
     3    33    35   am
     4    35    31    1
     5    31    23    1
     6    23     1    1
     7     1     2   am
     8     2     3    2
     9     2     5    1
    10     5     6    1
    11     5     7    1
    12     7     8    1
    13     8     9    1
    14     9    14    1
    15    14    15    2
    16    15    16    1
    17    16    17    2
    18    17    18    1
    19    18    19    2
    20    19    20    1
    21    20    21    2
    22    21    22    1
    23     9    10    1
    24    10    11    1
    25    23    24    1
    26    24    25   ar
    27    25    26   ar
    28    26    27   ar
    29    27    28    1
    30    27    29   ar
    31    29    30   ar
    32    11     5    1
    33    30    24   ar
    34    22    14    1
    35    22    18    1
    36    35    36    1
    37     1     4    1
    38     6    12    1
    39     6    13    1
