@<TRIPOS>MOLECULE
*****
 42 44 0 0 0
SMALL
GASTEIGER

@<TRIPOS>ATOM
      1 C         141.1071  136.7757  156.3965 C.ar    1  UNL1       -0.0032
      2 C         141.3863  135.4729  155.7075 C.ar    1  UNL1       -0.0032
      3 C         142.7672  135.1706  155.2058 C.ar    1  UNL1       -0.0062
      4 C         143.8689  136.1713  155.3930 C.ar    1  UNL1       -0.0032
      5 C         143.5896  137.4742  156.0820 C.ar    1  UNL1       -0.0032
      6 C         142.2087  137.7763  156.5837 C.ar    1  UNL1       -0.0062
      7 C         143.0464  133.8678  154.5169 C.3     1  UNL1        0.0992
      8 N         142.7787  132.5727  155.2246 N.3     1  UNL1       -0.2677
      9 C         141.5382  132.0718  154.5462 C.3     1  UNL1        0.0738
     10 C         140.4242  131.0937  154.3171 C.3     1  UNL1        0.0344
     11 C         139.6575  129.8322  154.5828 C.3     1  UNL1        0.0700
     12 N         139.3898  128.5370  155.2906 N.3     1  UNL1       -0.2963
     13 C         139.6741  127.4648  156.3003 C.3     1  UNL1        0.0859
     14 C         140.4543  126.8278  157.4119 C.3     1  UNL1        0.0859
     15 N         141.5757  126.7523  158.4053 N.3     1  UNL1       -0.2963
     16 C         142.8162  127.2532  159.0837 C.3     1  UNL1        0.0700
     17 C         143.9301  128.2313  159.3127 C.3     1  UNL1        0.0341
     18 C         144.6969  129.4928  159.0471 C.3     1  UNL1        0.0700
     19 N         144.9646  130.7881  158.3393 N.3     1  UNL1       -0.2963
     20 C         144.6802  131.8603  157.3296 C.3     1  UNL1        0.0861
     21 C         143.9000  132.4972  156.2180 C.3     1  UNL1        0.0896
     22 H         139.3709  127.9381  154.4651 H       1  UNL1        0.1233
     23 H         141.9388  125.8416  158.1241 H       1  UNL1        0.1233
     24 H         145.9198  130.5824  158.0466 H       1  UNL1        0.1233
     25 C         141.9294  139.0791  157.2726 C.3     1  UNL1        0.0992
     26 N         141.6562  139.1043  158.7473 N.3     1  UNL1       -0.2677
     27 C         140.1657  139.2610  158.8080 C.3     1  UNL1        0.0738
     28 C         138.8486  139.3979  159.5128 C.3     1  UNL1        0.0344
     29 C         137.9662  139.4878  160.7224 C.3     1  UNL1        0.0700
     30 N         137.6929  139.5129  162.1971 N.3     1  UNL1       -0.2963
     31 C         138.0829  139.4684  163.6448 C.3     1  UNL1        0.0859
     32 C         139.0591  139.3629  164.7788 C.3     1  UNL1        0.0859
     33 N         140.4280  139.2174  165.3745 N.3     1  UNL1       -0.2963
     34 C         141.9186  139.0607  165.3139 C.3     1  UNL1        0.0700
     35 C         143.2356  138.9238  164.6089 C.3     1  UNL1        0.0341
     36 C         144.1181  138.8339  163.3994 C.3     1  UNL1        0.0700
     37 N         144.3914  138.8088  161.9247 N.3     1  UNL1       -0.2963
     38 C         144.0013  138.8533  160.4770 C.3     1  UNL1        0.0861
     39 C         143.0251  138.9588  159.3430 C.3     1  UNL1        0.0896
     40 H         137.0205  138.7462  162.2189 H       1  UNL1        0.1233
     41 H         140.2336  138.3990  165.9514 H       1  UNL1        0.1233
     42 H         144.8895  137.9190  161.8989 H       1  UNL1        0.1233
@<TRIPOS>BOND
     1     1     2   ar
     2     2     3   ar
     3     3     7    1
     4     7     8    1
     5     8     9    1
     6     9    10    1
     7    10    11    1
     8    11    12    1
     9    12    13    1
    10    13    14    1
    11    14    15    1
    12    15    16    1
    13    16    17    1
    14    17    18    1
    15    18    19    1
    16    19    20    1
    17    20    21    1
    18     3     4   ar
    19     4     5   ar
    20     5     6   ar
    21     6    25    1
    22    25    26    1
    23    26    27    1
    24    27    28    1
    25    28    29    1
    26    29    30    1
    27    30    31    1
    28    31    32    1
    29    32    33    1
    30    33    34    1
    31    34    35    1
    32    35    36    1
    33    36    37    1
    34    37    38    1
    35    38    39    1
    36     6     1   ar
    37    39    26    1
    38    21     8    1
    39    12    22    1
    40    15    23    1
    41    19    24    1
    42    30    40    1
    43    33    41    1
    44    37    42    1
@<TRIPOS>MOLECULE
*****
 42 44 0 0 0
SMALL
GASTEIGER

@<TRIPOS>ATOM
      1 C         141.3019  137.2423  156.4346 C.ar    1  UNL1       -0.0032
      2 C         141.1856  135.9504  155.6812 C.ar    1  UNL1       -0.0032
      3 C         142.3980  135.3461  155.0371 C.ar    1  UNL1       -0.0062
      4 C         143.7267  136.0336  155.1464 C.ar    1  UNL1       -0.0032
      5 C         143.8429  137.3255  155.8999 C.ar    1  UNL1       -0.0032
      6 C         142.6305  137.9298  156.5439 C.ar    1  UNL1       -0.0062
      7 C         142.2817  134.0542  154.2838 C.3     1  UNL1        0.0992
      8 N         142.2791  132.7508  155.0260 N.3     1  UNL1       -0.2677
      9 C         143.4914  132.8632  155.9022 C.3     1  UNL1        0.0738
     10 C         144.4624  132.3732  156.9352 C.3     1  UNL1        0.0344
     11 C         144.9998  131.3780  157.9204 C.3     1  UNL1        0.0700
     12 N         144.9972  130.0744  158.6627 N.3     1  UNL1       -0.2963
     13 C         144.4550  128.7209  159.0150 C.3     1  UNL1        0.0859
     14 C         143.4807  127.5855  158.9075 C.3     1  UNL1        0.0859
     15 N         142.2673  126.8930  158.3616 N.3     1  UNL1       -0.2963
     16 C         141.0550  126.7806  157.4854 C.3     1  UNL1        0.0700
     17 C         140.0840  127.2706  156.4524 C.3     1  UNL1        0.0341
     18 C         139.5466  128.2658  155.4672 C.3     1  UNL1        0.0700
     19 N         139.5492  129.5694  154.7249 N.3     1  UNL1       -0.2963
     20 C         140.0913  130.9229  154.3726 C.3     1  UNL1        0.0861
     21 C         141.0657  132.0583  154.4801 C.3     1  UNL1        0.0896
     22 H         145.0078  130.4611  159.6065 H       1  UNL1        0.1233
     23 H         141.8009  126.7238  159.2529 H       1  UNL1        0.1233
     24 H         138.6080  129.8677  154.9808 H       1  UNL1        0.1233
     25 C         142.7467  139.2216  157.2973 C.3     1  UNL1        0.0992
     26 N         141.9265  139.4457  158.5330 N.3     1  UNL1       -0.2677
     27 C         141.1231  140.6634  158.1841 C.3     1  UNL1        0.0738
     28 C         140.1137  141.7397  158.4541 C.3     1  UNL1        0.0344
     29 C         139.0984  142.4612  159.2898 C.3     1  UNL1        0.0700
     30 N         138.2780  142.6853  160.5255 N.3     1  UNL1       -0.2963
     31 C         137.8153  142.3675  161.9164 C.3     1  UNL1        0.0859
     32 C         137.8017  141.5707  163.1872 C.3     1  UNL1        0.0859
     33 N         138.2401  140.4528  164.0861 N.3     1  UNL1       -0.2963
     34 C         139.0435  139.2350  164.4351 C.3     1  UNL1        0.0700
     35 C         140.0528  138.1588  164.1650 C.3     1  UNL1        0.0341
     36 C         141.0682  137.4371  163.3294 C.3     1  UNL1        0.0700
     37 N         141.8885  137.2130  162.0937 N.3     1  UNL1       -0.2963
     38 C         142.3512  137.5309  160.7027 C.3     1  UNL1        0.0861
     39 C         142.3648  138.3277  159.4319 C.3     1  UNL1        0.0896
     40 H         137.3617  142.6778  160.0776 H       1  UNL1        0.1233
     41 H         137.3170  140.0552  164.2604 H       1  UNL1        0.1233
     42 H         141.6029  136.2494  161.9198 H       1  UNL1        0.1233
@<TRIPOS>BOND
     1     1     2   ar
     2     2     3   ar
     3     3     7    1
     4     7     8    1
     5     8     9    1
     6     9    10    1
     7    10    11    1
     8    11    12    1
     9    12    13    1
    10    13    14    1
    11    14    15    1
    12    15    16    1
    13    16    17    1
    14    17    18    1
    15    18    19    1
    16    19    20    1
    17    20    21    1
    18     3     4   ar
    19     4     5   ar
    20     5     6   ar
    21     6    25    1
    22    25    26    1
    23    26    27    1
    24    27    28    1
    25    28    29    1
    26    29    30    1
    27    30    31    1
    28    31    32    1
    29    32    33    1
    30    33    34    1
    31    34    35    1
    32    35    36    1
    33    36    37    1
    34    37    38    1
    35    38    39    1
    36     6     1   ar
    37    39    26    1
    38    21     8    1
    39    12    22    1
    40    15    23    1
    41    19    24    1
    42    30    40    1
    43    33    41    1
    44    37    42    1
@<TRIPOS>MOLECULE
*****
 42 44 0 0 0
SMALL
GASTEIGER

@<TRIPOS>ATOM
      1 C         141.1381  135.7523  155.6633 C.ar    1  UNL1       -0.0032
      2 C         140.9829  137.0416  156.4139 C.ar    1  UNL1       -0.0032
      3 C         142.1477  137.9775  156.5459 C.ar    1  UNL1       -0.0062
      4 C         143.4677  137.6240  155.9272 C.ar    1  UNL1       -0.0032
      5 C         143.6228  136.3345  155.1766 C.ar    1  UNL1       -0.0032
      6 C         142.4580  135.3987  155.0447 C.ar    1  UNL1       -0.0062
      7 C         141.9925  139.2669  157.2964 C.3     1  UNL1        0.0992
      8 N         141.6923  139.2478  158.7659 N.3     1  UNL1       -0.2677
      9 C         140.2008  139.4029  158.8038 C.3     1  UNL1        0.0738
     10 C         138.8711  139.5187  159.4883 C.3     1  UNL1        0.0344
     11 C         137.9665  139.5724  160.6836 C.3     1  UNL1        0.0700
     12 N         137.6662  139.5534  162.1532 N.3     1  UNL1       -0.2963
     13 C         138.0297  139.4653  163.6058 C.3     1  UNL1        0.0859
     14 C         138.9851  139.3257  164.7539 C.3     1  UNL1        0.0859
     15 N         140.3429  139.1621  165.3699 N.3     1  UNL1       -0.2963
     16 C         141.8344  139.0071  165.3319 C.3     1  UNL1        0.0700
     17 C         143.1641  138.8913  164.6475 C.3     1  UNL1        0.0341
     18 C         144.0686  138.8375  163.4522 C.3     1  UNL1        0.0700
     19 N         144.3689  138.8566  161.9826 N.3     1  UNL1       -0.2963
     20 C         144.0054  138.9447  160.5300 C.3     1  UNL1        0.0861
     21 C         143.0501  139.0843  159.3819 C.3     1  UNL1        0.0896
     22 H         136.9939  138.7864  162.1396 H       1  UNL1        0.1233
     23 H         140.1382  138.3269  165.9183 H       1  UNL1        0.1233
     24 H         144.8677  137.9679  161.9392 H       1  UNL1        0.1233
     25 C         142.6131  134.1093  154.2941 C.3     1  UNL1        0.0992
     26 N         142.5169  132.8014  155.0221 N.3     1  UNL1       -0.2677
     27 C         143.7052  132.8404  155.9368 C.3     1  UNL1        0.0738
     28 C         144.6153  132.2896  156.9943 C.3     1  UNL1        0.0344
     29 C         145.0670  131.2581  157.9852 C.3     1  UNL1        0.0700
     30 N         144.9709  129.9501  158.7133 N.3     1  UNL1       -0.2963
     31 C         144.3460  128.6249  159.0343 C.3     1  UNL1        0.0859
     32 C         143.3160  127.5447  158.8847 C.3     1  UNL1        0.0859
     33 N         142.0850  126.9236  158.2941 N.3     1  UNL1       -0.2963
     34 C         140.8967  126.8846  157.3795 C.3     1  UNL1        0.0700
     35 C         139.9866  127.4354  156.3220 C.3     1  UNL1        0.0341
     36 C         139.5348  128.4669  155.3311 C.3     1  UNL1        0.0700
     37 N         139.6310  129.7748  154.6030 N.3     1  UNL1       -0.2963
     38 C         140.2559  131.1002  154.2819 C.3     1  UNL1        0.0861
     39 C         141.2859  132.1803  154.4315 C.3     1  UNL1        0.0896
     40 H         144.9725  130.3273  159.6610 H       1  UNL1        0.1233
     41 H         141.5823  126.7720  159.1686 H       1  UNL1        0.1233
     42 H         138.6995  130.1214  154.8325 H       1  UNL1        0.1233
@<TRIPOS>BOND
     1     1     2   ar
     2     2     3   ar
     3     3     7    1
     4     7     8    1
     5     8     9    1
     6     9    10    1
     7    10    11    1
     8    11    12    1
     9    12    13    1
    10    13    14    1
    11    14    15    1
    12    15    16    1
    13    16    17    1
    14    17    18    1
    15    18    19    1
    16    19    20    1
    17    20    21    1
    18     3     4   ar
    19     4     5   ar
    20     5     6   ar
    21     6    25    1
    22    25    26    1
    23    26    27    1
    24    27    28    1
    25    28    29    1
    26    29    30    1
    27    30    31    1
    28    31    32    1
    29    32    33    1
    30    33    34    1
    31    34    35    1
    32    35    36    1
    33    36    37    1
    34    37    38    1
    35    38    39    1
    36     6     1   ar
    37    39    26    1
    38    21     8    1
    39    12    22    1
    40    15    23    1
    41    19    24    1
    42    30    40    1
    43    33    41    1
    44    37    42    1
@<TRIPOS>MOLECULE
*****
 42 44 0 0 0
SMALL
GASTEIGER

@<TRIPOS>ATOM
      1 C         143.7812  136.4692  155.1949 C.ar    1  UNL1       -0.0032
      2 C         143.8975  137.7119  156.0267 C.ar    1  UNL1       -0.0032
      3 C         142.7423  138.1592  156.8725 C.ar    1  UNL1       -0.0062
      4 C         141.4707  137.3637  156.8864 C.ar    1  UNL1       -0.0032
      5 C         141.3544  136.1208  156.0545 C.ar    1  UNL1       -0.0032
      6 C         142.5097  135.6737  155.2088 C.ar    1  UNL1       -0.0062
      7 C         142.8586  139.4020  157.7043 C.3     1  UNL1        0.0992
      8 N         141.9592  139.5988  158.8884 N.3     1  UNL1       -0.2677
      9 C         141.2143  140.8525  158.5370 C.3     1  UNL1        0.0738
     10 C         140.2166  141.9454  158.7822 C.3     1  UNL1        0.0344
     11 C         139.1638  142.6612  159.5754 C.3     1  UNL1        0.0700
     12 N         138.2642  142.8580  160.7596 N.3     1  UNL1       -0.2963
     13 C         137.6963  142.4969  162.1001 C.3     1  UNL1        0.0859
     14 C         137.5724  141.6494  163.3316 C.3     1  UNL1        0.0859
     15 N         137.9170  140.4833  164.2099 N.3     1  UNL1       -0.2963
     16 C         138.6619  139.2297  164.5614 C.3     1  UNL1        0.0700
     17 C         139.6596  138.1367  164.3161 C.3     1  UNL1        0.0341
     18 C         140.7124  137.4210  163.5229 C.3     1  UNL1        0.0700
     19 N         141.6119  137.2241  162.3387 N.3     1  UNL1       -0.2963
     20 C         142.1798  137.5852  160.9982 C.3     1  UNL1        0.0861
     21 C         142.3038  138.4328  159.7667 C.3     1  UNL1        0.0896
     22 H         137.3819  142.8953  160.2492 H       1  UNL1        0.1233
     23 H         136.9740  140.1057  164.3024 H       1  UNL1        0.1233
     24 H         141.3145  136.2771  162.1042 H       1  UNL1        0.1233
     25 C         142.3934  134.4309  154.3770 C.3     1  UNL1        0.0992
     26 N         142.3882  133.0841  155.0374 N.3     1  UNL1       -0.2677
     27 C         143.5791  133.1537  155.9467 C.3     1  UNL1        0.0738
     28 C         144.5320  132.6102  156.9698 C.3     1  UNL1        0.0344
     29 C         145.0579  131.5611  157.9041 C.3     1  UNL1        0.0700
     30 N         145.0528  130.2143  158.5645 N.3     1  UNL1       -0.2963
     31 C         144.5177  128.8366  158.8203 C.3     1  UNL1        0.0859
     32 C         143.5586  127.7007  158.6207 C.3     1  UNL1        0.0859
     33 N         142.3654  127.0317  158.0053 N.3     1  UNL1       -0.2963
     34 C         141.1744  126.9620  157.0959 C.3     1  UNL1        0.0700
     35 C         140.2216  127.5056  156.0728 C.3     1  UNL1        0.0341
     36 C         139.6957  128.5546  155.1385 C.3     1  UNL1        0.0700
     37 N         139.7008  129.9014  154.4781 N.3     1  UNL1       -0.2963
     38 C         140.2359  131.2792  154.2224 C.3     1  UNL1        0.0861
     39 C         141.1951  132.4151  154.4220 C.3     1  UNL1        0.0896
     40 H         145.0379  130.5420  159.5303 H       1  UNL1        0.1233
     41 H         141.8810  126.8033  158.8734 H       1  UNL1        0.1233
     42 H         138.7508  130.1744  154.7299 H       1  UNL1        0.1233
@<TRIPOS>BOND
     1     1     2   ar
     2     2     3   ar
     3     3     7    1
     4     7     8    1
     5     8     9    1
     6     9    10    1
     7    10    11    1
     8    11    12    1
     9    12    13    1
    10    13    14    1
    11    14    15    1
    12    15    16    1
    13    16    17    1
    14    17    18    1
    15    18    19    1
    16    19    20    1
    17    20    21    1
    18     3     4   ar
    19     4     5   ar
    20     5     6   ar
    21     6    25    1
    22    25    26    1
    23    26    27    1
    24    27    28    1
    25    28    29    1
    26    29    30    1
    27    30    31    1
    28    31    32    1
    29    32    33    1
    30    33    34    1
    31    34    35    1
    32    35    36    1
    33    36    37    1
    34    37    38    1
    35    38    39    1
    36     6     1   ar
    37    39    26    1
    38    21     8    1
    39    12    22    1
    40    15    23    1
    41    19    24    1
    42    30    40    1
    43    33    41    1
    44    37    42    1
@<TRIPOS>MOLECULE
*****
 42 44 0 0 0
SMALL
GASTEIGER

@<TRIPOS>ATOM
      1 C         143.5380  137.5415  156.0034 C.ar    1  UNL1       -0.0032
      2 C         143.6997  136.2483  155.2607 C.ar    1  UNL1       -0.0032
      3 C         142.5067  135.3758  155.0053 C.ar    1  UNL1       -0.0062
      4 C         141.1518  135.7965  155.4926 C.ar    1  UNL1       -0.0032
      5 C         140.9901  137.0897  156.2353 C.ar    1  UNL1       -0.0032
      6 C         142.1832  137.9622  156.4907 C.ar    1  UNL1       -0.0062
      7 C         142.6684  134.0827  154.2626 C.3     1  UNL1        0.0992
      8 N         142.5589  132.7784  154.9952 N.3     1  UNL1       -0.2677
      9 C         143.7438  132.8114  155.9144 C.3     1  UNL1        0.0738
     10 C         144.6453  132.2574  156.9776 C.3     1  UNL1        0.0344
     11 C         145.0848  131.2261  157.9742 C.3     1  UNL1        0.0700
     12 N         144.9754  129.9217  158.7068 N.3     1  UNL1       -0.2963
     13 C         144.3387  128.6026  159.0302 C.3     1  UNL1        0.0859
     14 C         143.3007  127.5301  158.8805 C.3     1  UNL1        0.0859
     15 N         142.0672  126.9166  158.2873 N.3     1  UNL1       -0.2963
     16 C         140.8823  126.8835  157.3680 C.3     1  UNL1        0.0700
     17 C         139.9808  127.4375  156.3048 C.3     1  UNL1        0.0341
     18 C         139.5413  128.4688  155.3083 C.3     1  UNL1        0.0700
     19 N         139.6507  129.7733  154.5757 N.3     1  UNL1       -0.2963
     20 C         140.2874  131.0923  154.2522 C.3     1  UNL1        0.0861
     21 C         141.3254  132.1649  154.4020 C.3     1  UNL1        0.0896
     22 H         144.9762  130.3024  159.6531 H       1  UNL1        0.1233
     23 H         141.5598  126.7722  159.1603 H       1  UNL1        0.1233
     24 H         138.7211  130.1280  154.8002 H       1  UNL1        0.1233
     25 C         142.0215  139.2553  157.2334 C.3     1  UNL1        0.0992
     26 N         141.7034  139.2437  158.6991 N.3     1  UNL1       -0.2677
     27 C         140.2119  139.4019  158.7183 C.3     1  UNL1        0.0738
     28 C         138.8741  139.5237  159.3859 C.3     1  UNL1        0.0344
     29 C         137.9552  139.5848  160.5698 C.3     1  UNL1        0.0700
     30 N         137.6370  139.5731  162.0357 N.3     1  UNL1       -0.2963
     31 C         137.9826  139.4911  163.4930 C.3     1  UNL1        0.0859
     32 C         138.9235  139.3549  164.6532 C.3     1  UNL1        0.0859
     33 N         140.2734  139.1915  165.2865 N.3     1  UNL1       -0.2963
     34 C         141.7649  139.0332  165.2675 C.3     1  UNL1        0.0700
     35 C         143.1026  138.9115  164.5998 C.3     1  UNL1        0.0341
     36 C         144.0216  138.8504  163.4159 C.3     1  UNL1        0.0700
     37 N         144.3398  138.8620  161.9501 N.3     1  UNL1       -0.2963
     38 C         143.9942  138.9441  160.4927 C.3     1  UNL1        0.0861
     39 C         143.0533  139.0803  159.3325 C.3     1  UNL1        0.0896
     40 H         136.9633  138.8075  162.0175 H       1  UNL1        0.1233
     41 H         140.0603  138.3592  165.8363 H       1  UNL1        0.1233
     42 H         144.8372  137.9721  161.9169 H       1  UNL1        0.1233
@<TRIPOS>BOND
     1     1     2   ar
     2     2     3   ar
     3     3     7    1
     4     7     8    1
     5     8     9    1
     6     9    10    1
     7    10    11    1
     8    11    12    1
     9    12    13    1
    10    13    14    1
    11    14    15    1
    12    15    16    1
    13    16    17    1
    14    17    18    1
    15    18    19    1
    16    19    20    1
    17    20    21    1
    18     3     4   ar
    19     4     5   ar
    20     5     6   ar
    21     6    25    1
    22    25    26    1
    23    26    27    1
    24    27    28    1
    25    28    29    1
    26    29    30    1
    27    30    31    1
    28    31    32    1
    29    32    33    1
    30    33    34    1
    31    34    35    1
    32    35    36    1
    33    36    37    1
    34    37    38    1
    35    38    39    1
    36     6     1   ar
    37    39    26    1
    38    21     8    1
    39    12    22    1
    40    15    23    1
    41    19    24    1
    42    30    40    1
    43    33    41    1
    44    37    42    1
@<TRIPOS>MOLECULE
*****
 42 44 0 0 0
SMALL
GASTEIGER

@<TRIPOS>ATOM
      1 C         141.1999  138.1686  157.8636 C.ar    1  UNL1       -0.0032
      2 C         142.2230  137.1423  157.4763 C.ar    1  UNL1       -0.0032
      3 C         142.8522  137.1870  156.1154 C.ar    1  UNL1       -0.0062
      4 C         142.4584  138.2580  155.1418 C.ar    1  UNL1       -0.0032
      5 C         141.4353  139.2843  155.5291 C.ar    1  UNL1       -0.0032
      6 C         140.8061  139.2396  156.8900 C.ar    1  UNL1       -0.0062
      7 C         143.8753  136.1607  155.7281 C.3     1  UNL1        0.0992
      8 N         143.4708  134.7268  155.5543 N.3     1  UNL1       -0.2677
      9 C         142.6685  134.7576  154.2872 C.3     1  UNL1        0.0738
     10 C         141.8451  134.1441  153.1938 C.3     1  UNL1        0.0344
     11 C         141.1637  133.0079  152.4905 C.3     1  UNL1        0.0700
     12 N         140.7591  131.5740  152.3166 N.3     1  UNL1       -0.2963
     13 C         140.7115  130.1264  152.7067 C.3     1  UNL1        0.0859
     14 C         141.0304  128.9518  153.5835 C.3     1  UNL1        0.0859
     15 N         141.6526  128.2829  154.7732 N.3     1  UNL1       -0.2963
     16 C         142.4548  128.2521  156.0403 C.3     1  UNL1        0.0700
     17 C         143.2782  128.8656  157.1338 C.3     1  UNL1        0.0341
     18 C         143.9596  130.0017  157.8370 C.3     1  UNL1        0.0700
     19 N         144.3643  131.4357  158.0109 N.3     1  UNL1       -0.2963
     20 C         144.4118  132.8833  157.6208 C.3     1  UNL1        0.0861
     21 C         144.0929  134.0579  156.7440 C.3     1  UNL1        0.0896
     22 H         141.1359  131.4444  151.3777 H       1  UNL1        0.1233
     23 H         142.1856  127.5782  154.2635 H       1  UNL1        0.1233
     24 H         145.3710  131.2819  158.0669 H       1  UNL1        0.1233
     25 C         139.7830  140.2658  157.2773 C.3     1  UNL1        0.0992
     26 N         139.8637  140.9373  158.6162 N.3     1  UNL1       -0.2677
     27 C         141.1222  141.7462  158.5086 C.3     1  UNL1        0.0738
     28 C         142.1675  142.6939  159.0180 C.3     1  UNL1        0.0344
     29 C         142.7923  143.5923  160.0438 C.3     1  UNL1        0.0700
     30 N         142.8731  144.2638  161.3828 N.3     1  UNL1       -0.2963
     31 C         142.3937  144.5752  162.7696 C.3     1  UNL1        0.0859
     32 C         141.4492  144.4649  163.9296 C.3     1  UNL1        0.0859
     33 N         140.2266  143.9548  164.6331 N.3     1  UNL1       -0.2963
     34 C         138.9680  143.1458  164.7408 C.3     1  UNL1        0.0700
     35 C         137.9228  142.1982  164.2313 C.3     1  UNL1        0.0341
     36 C         137.2979  141.2997  163.2055 C.3     1  UNL1        0.0700
     37 N         137.2172  140.6282  161.8666 N.3     1  UNL1       -0.2963
     38 C         137.6966  140.3168  160.4798 C.3     1  UNL1        0.0861
     39 C         138.6411  140.4271  159.3197 C.3     1  UNL1        0.0896
     40 H         142.9285  145.2245  161.0445 H       1  UNL1        0.1233
     41 H         139.8197  144.8614  164.8627 H       1  UNL1        0.1233
     42 H         136.2844  140.9537  161.6128 H       1  UNL1        0.1233
@<TRIPOS>BOND
     1     1     2   ar
     2     2     3   ar
     3     3     7    1
     4     7     8    1
     5     8     9    1
     6     9    10    1
     7    10    11    1
     8    11    12    1
     9    12    13    1
    10    13    14    1
    11    14    15    1
    12    15    16    1
    13    16    17    1
    14    17    18    1
    15    18    19    1
    16    19    20    1
    17    20    21    1
    18     3     4   ar
    19     4     5   ar
    20     5     6   ar
    21     6    25    1
    22    25    26    1
    23    26    27    1
    24    27    28    1
    25    28    29    1
    26    29    30    1
    27    30    31    1
    28    31    32    1
    29    32    33    1
    30    33    34    1
    31    34    35    1
    32    35    36    1
    33    36    37    1
    34    37    38    1
    35    38    39    1
    36     6     1   ar
    37    39    26    1
    38    21     8    1
    39    12    22    1
    40    15    23    1
    41    19    24    1
    42    30    40    1
    43    33    41    1
    44    37    42    1
@<TRIPOS>MOLECULE
*****
 42 44 0 0 0
SMALL
GASTEIGER

@<TRIPOS>ATOM
      1 C         141.8649  137.0949  157.2407 C.ar    1  UNL1       -0.0032
      2 C         140.8306  138.1077  157.6339 C.ar    1  UNL1       -0.0032
      3 C         140.7139  139.3949  156.8726 C.ar    1  UNL1       -0.0062
      4 C         141.6315  139.6693  155.7182 C.ar    1  UNL1       -0.0032
      5 C         142.6659  138.6565  155.3250 C.ar    1  UNL1       -0.0032
      6 C         142.7825  137.3693  156.0863 C.ar    1  UNL1       -0.0062
      7 C         139.6797  140.4076  157.2658 C.3     1  UNL1        0.0992
      8 N         139.7538  141.0731  158.6080 N.3     1  UNL1       -0.2677
      9 C         140.9640  141.9500  158.4793 C.3     1  UNL1        0.0738
     10 C         141.9675  142.9494  158.9735 C.3     1  UNL1        0.0344
     11 C         142.5655  143.8733  159.9926 C.3     1  UNL1        0.0700
     12 N         142.6397  144.5388  161.3349 N.3     1  UNL1       -0.2963
     13 C         142.1753  144.8141  162.7344 C.3     1  UNL1        0.0859
     14 C         141.2642  144.6446  163.9140 C.3     1  UNL1        0.0859
     15 N         140.0871  144.0639  164.6400 N.3     1  UNL1       -0.2963
     16 C         138.8769  143.1870  164.7686 C.3     1  UNL1        0.0700
     17 C         137.8734  142.1876  164.2744 C.3     1  UNL1        0.0341
     18 C         137.2754  141.2637  163.2553 C.3     1  UNL1        0.0700
     19 N         137.2012  140.5981  161.9130 N.3     1  UNL1       -0.2963
     20 C         137.6656  140.3229  160.5135 C.3     1  UNL1        0.0861
     21 C         138.5767  140.4924  159.3339 C.3     1  UNL1        0.0896
     22 H         142.6355  145.5034  161.0033 H       1  UNL1        0.1233
     23 H         139.6369  144.9455  164.8858 H       1  UNL1        0.1233
     24 H         136.2467  140.8742  161.6824 H       1  UNL1        0.1233
     25 C         143.8168  136.3566  155.6932 C.3     1  UNL1        0.0992
     26 N         143.4230  134.9242  155.4855 N.3     1  UNL1       -0.2677
     27 C         142.6673  134.9701  154.1906 C.3     1  UNL1        0.0738
     28 C         141.8860  134.3695  153.0597 C.3     1  UNL1        0.0344
     29 C         141.2339  133.2412  152.3169 C.3     1  UNL1        0.0700
     30 N         140.8401  131.8088  152.1092 N.3     1  UNL1       -0.2963
     31 C         140.7826  130.3559  152.4778 C.3     1  UNL1        0.0859
     32 C         141.0728  129.1704  153.3498 C.3     1  UNL1        0.0859
     33 N         141.6532  128.4869  154.5523 N.3     1  UNL1       -0.2963
     34 C         142.4089  128.4410  155.8472 C.3     1  UNL1        0.0700
     35 C         143.1902  129.0417  156.9781 C.3     1  UNL1        0.0341
     36 C         143.8423  130.1698  157.7210 C.3     1  UNL1        0.0700
     37 N         144.2361  131.6023  157.9286 N.3     1  UNL1       -0.2963
     38 C         144.2936  133.0552  157.5600 C.3     1  UNL1        0.0861
     39 C         144.0034  134.2407  156.6880 C.3     1  UNL1        0.0896
     40 H         141.2513  131.6928  151.1830 H       1  UNL1        0.1233
     41 H         142.2064  127.7906  154.0529 H       1  UNL1        0.1233
     42 H         145.2406  131.4502  158.0192 H       1  UNL1        0.1233
@<TRIPOS>BOND
     1     1     2   ar
     2     2     3   ar
     3     3     7    1
     4     7     8    1
     5     8     9    1
     6     9    10    1
     7    10    11    1
     8    11    12    1
     9    12    13    1
    10    13    14    1
    11    14    15    1
    12    15    16    1
    13    16    17    1
    14    17    18    1
    15    18    19    1
    16    19    20    1
    17    20    21    1
    18     3     4   ar
    19     4     5   ar
    20     5     6   ar
    21     6    25    1
    22    25    26    1
    23    26    27    1
    24    27    28    1
    25    28    29    1
    26    29    30    1
    27    30    31    1
    28    31    32    1
    29    32    33    1
    30    33    34    1
    31    34    35    1
    32    35    36    1
    33    36    37    1
    34    37    38    1
    35    38    39    1
    36     6     1   ar
    37    39    26    1
    38    21     8    1
    39    12    22    1
    40    15    23    1
    41    19    24    1
    42    30    40    1
    43    33    41    1
    44    37    42    1
@<TRIPOS>MOLECULE
*****
 42 44 0 0 0
SMALL
GASTEIGER

@<TRIPOS>ATOM
      1 C         140.9185  136.8650  156.3499 C.ar    1  UNL1       -0.0032
      2 C         139.8345  137.6670  157.0070 C.ar    1  UNL1       -0.0032
      3 C         140.1795  138.9127  157.7680 C.ar    1  UNL1       -0.0062
      4 C         141.6086  139.3565  157.8718 C.ar    1  UNL1       -0.0032
      5 C         142.6926  138.5546  157.2147 C.ar    1  UNL1       -0.0032
      6 C         142.3475  137.3088  156.4537 C.ar    1  UNL1       -0.0062
      7 C         139.0954  139.7146  158.4251 C.3     1  UNL1        0.0992
      8 N         139.2328  140.1266  159.8608 N.3     1  UNL1       -0.2677
      9 C         139.1067  138.8247  160.5952 C.3     1  UNL1        0.0738
     10 C         139.0668  137.9641  161.8231 C.3     1  UNL1        0.0344
     11 C         139.1208  137.7151  163.3012 C.3     1  UNL1        0.0700
     12 N         139.2581  138.1271  164.7370 N.3     1  UNL1       -0.2963
     13 C         139.4516  139.1185  165.8460 C.3     1  UNL1        0.0859
     14 C         139.6628  140.4930  166.4084 C.3     1  UNL1        0.0859
     15 N         139.8500  141.9781  166.3130 N.3     1  UNL1       -0.2963
     16 C         139.9760  143.2800  165.5787 C.3     1  UNL1        0.0700
     17 C         140.0160  144.1407  164.3508 C.3     1  UNL1        0.0341
     18 C         139.9620  144.3896  162.8726 C.3     1  UNL1        0.0700
     19 N         139.8246  143.9776  161.4368 N.3     1  UNL1       -0.2963
     20 C         139.6312  142.9862  160.3279 C.3     1  UNL1        0.0861
     21 C         139.4199  141.6117  159.7654 C.3     1  UNL1        0.0896
     22 H         140.0332  137.5090  164.9772 H       1  UNL1        0.1233
     23 H         140.7284  142.0329  166.8286 H       1  UNL1        0.1233
     24 H         140.6986  144.3817  161.1003 H       1  UNL1        0.1233
     25 C         143.4315  136.5069  155.7966 C.3     1  UNL1        0.0992
     26 N         143.2336  135.0412  155.5467 N.3     1  UNL1       -0.2677
     27 C         142.5665  135.0187  154.2034 C.3     1  UNL1        0.0738
     28 C         141.9434  134.3484  153.0149 C.3     1  UNL1        0.0344
     29 C         141.4878  133.1630  152.2167 C.3     1  UNL1        0.0700
     30 N         141.2898  131.6972  151.9668 N.3     1  UNL1       -0.2963
     31 C         141.3888  130.2415  152.3147 C.3     1  UNL1        0.0859
     32 C         141.7650  129.0841  153.1915 C.3     1  UNL1        0.0859
     33 N         142.3440  128.4542  154.4236 N.3     1  UNL1       -0.2963
     34 C         143.0112  128.4767  155.7669 C.3     1  UNL1        0.0700
     35 C         143.6343  129.1471  156.9554 C.3     1  UNL1        0.0341
     36 C         144.0899  130.3324  157.7536 C.3     1  UNL1        0.0700
     37 N         144.2878  131.7982  158.0035 N.3     1  UNL1       -0.2963
     38 C         144.1889  133.2539  157.6556 C.3     1  UNL1        0.0861
     39 C         143.8126  134.4114  156.7788 C.3     1  UNL1        0.0896
     40 H         141.7733  131.6508  151.0699 H       1  UNL1        0.1233
     41 H         143.0117  127.8411  153.9559 H       1  UNL1        0.1233
     42 H         145.2951  131.7693  158.1614 H       1  UNL1        0.1233
@<TRIPOS>BOND
     1     1     2   ar
     2     2     3   ar
     3     3     7    1
     4     7     8    1
     5     8     9    1
     6     9    10    1
     7    10    11    1
     8    11    12    1
     9    12    13    1
    10    13    14    1
    11    14    15    1
    12    15    16    1
    13    16    17    1
    14    17    18    1
    15    18    19    1
    16    19    20    1
    17    20    21    1
    18     3     4   ar
    19     4     5   ar
    20     5     6   ar
    21     6    25    1
    22    25    26    1
    23    26    27    1
    24    27    28    1
    25    28    29    1
    26    29    30    1
    27    30    31    1
    28    31    32    1
    29    32    33    1
    30    33    34    1
    31    34    35    1
    32    35    36    1
    33    36    37    1
    34    37    38    1
    35    38    39    1
    36     6     1   ar
    37    39    26    1
    38    21     8    1
    39    12    22    1
    40    15    23    1
    41    19    24    1
    42    30    40    1
    43    33    41    1
    44    37    42    1
@<TRIPOS>MOLECULE
*****
 42 44 0 0 0
SMALL
GASTEIGER

@<TRIPOS>ATOM
      1 C         139.6489  137.7260  156.9375 C.ar    1  UNL1       -0.0032
      2 C         140.7227  136.9584  156.2249 C.ar    1  UNL1       -0.0032
      3 C         142.1535  137.3959  156.3308 C.ar    1  UNL1       -0.0062
      4 C         142.5106  138.6012  157.1493 C.ar    1  UNL1       -0.0032
      5 C         141.4367  139.3688  157.8619 C.ar    1  UNL1       -0.0032
      6 C         140.0059  138.9312  157.7559 C.ar    1  UNL1       -0.0062
      7 C         143.2273  136.6283  155.6183 C.3     1  UNL1        0.0992
      8 N         143.0836  135.1489  155.4167 N.3     1  UNL1       -0.2677
      9 C         142.4026  135.0583  154.0833 C.3     1  UNL1        0.0738
     10 C         141.7924  134.3272  152.9243 C.3     1  UNL1        0.0344
     11 C         141.3741  133.1006  152.1693 C.3     1  UNL1        0.0700
     12 N         141.2304  131.6211  151.9677 N.3     1  UNL1       -0.2963
     13 C         141.3899  130.1819  152.3595 C.3     1  UNL1        0.0859
     14 C         141.8209  129.0682  153.2672 C.3     1  UNL1        0.0859
     15 N         142.4380  128.5004  154.5109 N.3     1  UNL1       -0.2963
     16 C         143.1191  128.5910  155.8443 C.3     1  UNL1        0.0700
     17 C         143.7292  129.3221  157.0033 C.3     1  UNL1        0.0341
     18 C         144.1475  130.5487  157.7583 C.3     1  UNL1        0.0700
     19 N         144.2912  132.0282  157.9599 N.3     1  UNL1       -0.2963
     20 C         144.1317  133.4674  157.5681 C.3     1  UNL1        0.0861
     21 C         143.7007  134.5811  156.6604 C.3     1  UNL1        0.0896
     22 H         141.7051  131.5649  151.0666 H       1  UNL1        0.1233
     23 H         143.1236  127.8989  154.0541 H       1  UNL1        0.1233
     24 H         145.3006  132.0432  158.1058 H       1  UNL1        0.1233
     25 C         138.9322  139.6988  158.4685 C.3     1  UNL1        0.0992
     26 N         139.1252  140.1065  159.8990 N.3     1  UNL1       -0.2677
     27 C         139.5314  138.8227  160.5600 C.3     1  UNL1        0.0738
     28 C         139.9430  137.9746  161.7268 C.3     1  UNL1        0.0344
     29 C         140.2786  137.7302  163.1682 C.3     1  UNL1        0.0700
     30 N         140.4716  138.1378  164.5988 N.3     1  UNL1       -0.2963
     31 C         140.4838  139.1168  165.7352 C.3     1  UNL1        0.0859
     32 C         140.3129  140.4732  166.3524 C.3     1  UNL1        0.0859
     33 N         139.9926  141.9384  166.3281 N.3     1  UNL1       -0.2963
     34 C         139.5864  143.2222  165.6671 C.3     1  UNL1        0.0700
     35 C         139.1747  144.0703  164.5003 C.3     1  UNL1        0.0341
     36 C         138.8392  144.3147  163.0590 C.3     1  UNL1        0.0700
     37 N         138.6461  143.9071  161.6283 N.3     1  UNL1       -0.2963
     38 C         138.6339  142.9281  160.4919 C.3     1  UNL1        0.0861
     39 C         138.8049  141.5717  159.8747 C.3     1  UNL1        0.0896
     40 H         141.4306  137.8060  164.7014 H       1  UNL1        0.1233
     41 H         140.8679  142.2706  166.7328 H       1  UNL1        0.1233
     42 H         139.2862  144.5833  161.2119 H       1  UNL1        0.1233
@<TRIPOS>BOND
     1     1     2   ar
     2     2     3   ar
     3     3     7    1
     4     7     8    1
     5     8     9    1
     6     9    10    1
     7    10    11    1
     8    11    12    1
     9    12    13    1
    10    13    14    1
    11    14    15    1
    12    15    16    1
    13    16    17    1
    14    17    18    1
    15    18    19    1
    16    19    20    1
    17    20    21    1
    18     3     4   ar
    19     4     5   ar
    20     5     6   ar
    21     6    25    1
    22    25    26    1
    23    26    27    1
    24    27    28    1
    25    28    29    1
    26    29    30    1
    27    30    31    1
    28    31    32    1
    29    32    33    1
    30    33    34    1
    31    34    35    1
    32    35    36    1
    33    36    37    1
    34    37    38    1
    35    38    39    1
    36     6     1   ar
    37    39    26    1
    38    21     8    1
    39    12    22    1
    40    15    23    1
    41    19    24    1
    42    30    40    1
    43    33    41    1
    44    37    42    1
