@<TRIPOS>MOLECULE
*****
 32 36 0 0 0
SMALL
GASTEIGER

@<TRIPOS>ATOM
      1 C         141.4523  142.0572  160.6150 C.ar    1  UNL1        0.0537
      2 C         140.8191  140.8832  159.9289 C.ar    1  UNL1        0.0060
      3 C         140.1701  139.8011  160.7400 C.ar    1  UNL1        0.0173
      4 C         140.1544  139.8930  162.2371 C.ar    1  UNL1        0.0594
      5 C         140.7876  141.0670  162.9231 C.ar    1  UNL1        0.0130
      6 C         141.4365  142.1491  162.1121 C.ar    1  UNL1        0.0057
      7 C         140.6183  140.8861  164.4025 C.ar    1  UNL1       -0.0091
      8 C         139.8804  139.6002  164.6308 C.ar    1  UNL1        0.0331
      9 N         139.5937  138.9864  163.2925 N.ar    1  UNL1       -0.3289
     10 C         138.8729  137.6932  163.0518 C.3     1  UNL1        0.1301
     11 C         139.5649  139.1543  166.0278 C.3     1  UNL1        0.0435
     12 C         139.9873  139.9944  167.1966 C.3     1  UNL1        0.0066
     13 C         140.7252  141.2803  166.9683 C.3     1  UNL1        0.0049
     14 C         141.0407  141.7261  165.5712 C.3     1  UNL1        0.0275
     15 C         141.1476  142.1203  168.1371 C.3     1  UNL1        0.0053
     16 C         140.2093  143.1451  168.7021 C.3     1  UNL1        0.0322
     17 C         140.6317  143.9851  169.8709 C.3     1  UNL1        0.1422
     18 O         141.9923  143.8003  170.4745 O.3     1  UNL1       -0.3538
     19 C         142.9306  142.7756  169.9094 C.3     1  UNL1        0.1422
     20 C         142.5083  141.9355  168.7407 C.3     1  UNL1        0.0322
     21 C         141.9908  145.4739  158.6690 C.3     1  UNL1        0.1157
     22 N         141.3418  144.3917  159.4800 N.am    1  UNL1       -0.2660
     23 C         142.1013  143.1394  159.8039 C.2     1  UNL1        0.2494
     24 O         143.5097  142.9692  159.3167 O.2     1  UNL1       -0.2699
     25 C         139.9334  144.5619  159.9672 C.3     1  UNL1        0.1793
     26 C         139.6718  144.8765  161.4104 C.2     1  UNL1        0.2427
     27 O         140.3129  146.0750  162.0449 O.2     1  UNL1       -0.2732
     28 N         138.7692  143.9925  162.2190 N.am    1  UNL1       -0.3046
     29 H         138.3485  143.2059  161.8025 H       1  UNL1        0.1494
     30 C         138.5076  144.3070  163.6621 C.3     1  UNL1        0.0717
     31 C         137.5743  144.3402  164.8359 C.3     1  UNL1        0.0213
     32 C         138.9878  144.8185  164.9879 C.3     1  UNL1        0.0213
@<TRIPOS>BOND
     1    21    22    1
     2    22    25    1
     3    25    26    1
     4    26    27    2
     5    26    28   am
     6    28    30    1
     7    30    31    1
     8    31    32    1
     9    22    23   am
    10    23    24    2
    11    23     1    1
    12     1     2   ar
    13     2     3   ar
    14     3     4   ar
    15     4     5   ar
    16     5     6   ar
    17     5     7   ar
    18     7     8   ar
    19     8     9   ar
    20     9    10    1
    21     8    11    1
    22    11    12    1
    23    12    13    1
    24    13    15    1
    25    15    16    1
    26    16    17    1
    27    17    18    1
    28    18    19    1
    29    19    20    1
    30    13    14    1
    31    32    30    1
    32     6     1   ar
    33    14     7    1
    34     9     4   ar
    35    20    15    1
    36    28    29    1
@<TRIPOS>MOLECULE
*****
 32 36 0 0 0
SMALL
GASTEIGER

@<TRIPOS>ATOM
      1 C         140.2339  142.5691  160.8033 C.ar    1  UNL1        0.0537
      2 C         139.6947  141.3443  160.1258 C.ar    1  UNL1        0.0060
      3 C         139.3621  140.1252  160.9339 C.ar    1  UNL1        0.0173
      4 C         139.5687  140.1308  162.4196 C.ar    1  UNL1        0.0594
      5 C         140.1079  141.3556  163.0972 C.ar    1  UNL1        0.0130
      6 C         140.4405  142.5747  162.2890 C.ar    1  UNL1        0.0057
      7 C         140.2054  141.0678  164.5660 C.ar    1  UNL1       -0.0091
      8 C         139.7264  139.6651  164.7963 C.ar    1  UNL1        0.0331
      9 N         139.3329  139.0860  163.4698 N.ar    1  UNL1       -0.3289
     10 C         138.7976  137.7046  163.2346 C.3     1  UNL1        0.1301
     11 C         139.7104  139.0964  166.1842 C.3     1  UNL1        0.0435
     12 C         140.1734  139.9303  167.3419 C.3     1  UNL1        0.0066
     13 C         140.6524  141.3331  167.1116 C.3     1  UNL1        0.0049
     14 C         140.6684  141.9018  165.7237 C.3     1  UNL1        0.0275
     15 C         141.1154  142.1671  168.2693 C.3     1  UNL1        0.0053
     16 C         142.4710  141.9333  168.8673 C.3     1  UNL1        0.0322
     17 C         142.9340  142.7673  170.0249 C.3     1  UNL1        0.1422
     18 O         142.0415  143.8350  170.5844 O.3     1  UNL1       -0.3538
     19 C         140.6858  144.0688  169.9864 C.3     1  UNL1        0.1422
     20 C         140.2228  143.2348  168.8289 C.3     1  UNL1        0.0322
     21 C         142.2483  145.1362  158.5444 C.3     1  UNL1        0.1157
     22 N         141.9157  143.9170  159.3526 N.am    1  UNL1       -0.2660
     23 C         140.5665  143.7883  159.9952 C.2     1  UNL1        0.2494
     24 O         139.5498  144.8787  159.8297 O.2     1  UNL1       -0.2699
     25 C         142.9323  142.8266  159.5180 C.3     1  UNL1        0.1793
     26 C         143.6662  142.6763  160.8176 C.2     1  UNL1        0.2427
     27 O         143.9710  143.8856  161.6510 O.2     1  UNL1       -0.2732
     28 N         144.0953  141.3166  161.2838 N.am    1  UNL1       -0.3046
     29 H         143.8952  140.5229  160.7368 H       1  UNL1        0.1494
     30 C         144.8291  141.1663  162.5833 C.3     1  UNL1        0.0717
     31 C         145.8581  141.6567  163.5583 C.3     1  UNL1        0.0213
     32 C         145.0712  140.4156  163.8591 C.3     1  UNL1        0.0213
@<TRIPOS>BOND
     1    21    22    1
     2    22    25    1
     3    25    26    1
     4    26    27    2
     5    26    28   am
     6    28    30    1
     7    30    31    1
     8    31    32    1
     9    22    23   am
    10    23    24    2
    11    23     1    1
    12     1     2   ar
    13     2     3   ar
    14     3     4   ar
    15     4     5   ar
    16     5     6   ar
    17     5     7   ar
    18     7     8   ar
    19     8     9   ar
    20     9    10    1
    21     8    11    1
    22    11    12    1
    23    12    13    1
    24    13    15    1
    25    15    16    1
    26    16    17    1
    27    17    18    1
    28    18    19    1
    29    19    20    1
    30    13    14    1
    31    32    30    1
    32     6     1   ar
    33    14     7    1
    34     9     4   ar
    35    20    15    1
    36    28    29    1
@<TRIPOS>MOLECULE
*****
 32 36 0 0 0
SMALL
GASTEIGER

@<TRIPOS>ATOM
      1 C         140.6746  140.2995  160.9504 C.ar    1  UNL1        0.0537
      2 C         141.9515  140.5249  160.1963 C.ar    1  UNL1        0.0060
      3 C         143.1653  141.0372  160.9132 C.ar    1  UNL1        0.0173
      4 C         143.1023  141.3243  162.3841 C.ar    1  UNL1        0.0594
      5 C         141.8254  141.0990  163.1382 C.ar    1  UNL1        0.0130
      6 C         140.6115  140.5866  162.4213 C.ar    1  UNL1        0.0057
      7 C         142.0628  141.4683  164.5725 C.ar    1  UNL1       -0.0091
      8 C         143.4864  141.9219  164.7049 C.ar    1  UNL1        0.0331
      9 N         144.1289  141.8329  163.3524 N.ar    1  UNL1       -0.3289
     10 C         145.5487  142.1898  163.0255 C.3     1  UNL1        0.1301
     11 C         144.0138  142.3573  166.0399 C.3     1  UNL1        0.0435
     12 C         143.1175  142.3392  167.2426 C.3     1  UNL1        0.0066
     13 C         141.6938  141.8856  167.1102 C.3     1  UNL1        0.0049
     14 C         141.1665  141.4501  165.7751 C.3     1  UNL1        0.0275
     15 C         140.7976  141.8675  168.3128 C.3     1  UNL1        0.0053
     16 C         140.6931  143.0807  169.1887 C.3     1  UNL1        0.0322
     17 C         139.7968  143.0626  170.3913 C.3     1  UNL1        0.1422
     18 O         139.0050  141.8313  170.7180 O.3     1  UNL1       -0.3538
     19 C         139.1095  140.6180  169.8422 C.3     1  UNL1        0.1422
     20 C         140.0057  140.6361  168.6396 C.3     1  UNL1        0.0322
     21 C         137.1267  140.2119  159.1740 C.3     1  UNL1        0.1157
     22 N         138.3407  140.7243  159.8908 N.am    1  UNL1       -0.2660
     23 C         139.4606  139.7871  160.2336 C.2     1  UNL1        0.2494
     24 O         139.3666  138.3376  159.8595 O.2     1  UNL1       -0.2699
     25 C         138.4347  142.1739  160.2649 C.3     1  UNL1        0.1793
     26 C         138.1667  142.6029  161.6771 C.2     1  UNL1        0.2427
     27 O         137.1142  141.9047  162.4862 O.2     1  UNL1       -0.2732
     28 N         138.9513  143.7302  162.2801 N.am    1  UNL1       -0.3046
     29 H         139.6420  144.1885  161.7490 H       1  UNL1        0.1494
     30 C         138.6833  144.1593  163.6922 C.3     1  UNL1        0.0717
     31 C         137.7416  144.2968  164.8516 C.3     1  UNL1        0.0213
     32 C         139.1610  144.7650  164.9786 C.3     1  UNL1        0.0213
@<TRIPOS>BOND
     1    21    22    1
     2    22    25    1
     3    25    26    1
     4    26    27    2
     5    26    28   am
     6    28    30    1
     7    30    31    1
     8    31    32    1
     9    22    23   am
    10    23    24    2
    11    23     1    1
    12     1     2   ar
    13     2     3   ar
    14     3     4   ar
    15     4     5   ar
    16     5     6   ar
    17     5     7   ar
    18     7     8   ar
    19     8     9   ar
    20     9    10    1
    21     8    11    1
    22    11    12    1
    23    12    13    1
    24    13    15    1
    25    15    16    1
    26    16    17    1
    27    17    18    1
    28    18    19    1
    29    19    20    1
    30    13    14    1
    31    32    30    1
    32     6     1   ar
    33    14     7    1
    34     9     4   ar
    35    20    15    1
    36    28    29    1
@<TRIPOS>MOLECULE
*****
 32 36 0 0 0
SMALL
GASTEIGER

@<TRIPOS>ATOM
      1 C         142.0843  141.0183  160.5297 C.ar    1  UNL1        0.0537
      2 C         141.6817  142.0934  159.5644 C.ar    1  UNL1        0.0060
      3 C         140.9730  143.3191  160.0598 C.ar    1  UNL1        0.0173
      4 C         140.6669  143.4696  161.5205 C.ar    1  UNL1        0.0594
      5 C         141.0695  142.3944  162.4858 C.ar    1  UNL1        0.0130
      6 C         141.7782  141.1688  161.9904 C.ar    1  UNL1        0.0057
      7 C         140.6366  142.8179  163.8582 C.ar    1  UNL1       -0.0091
      8 C         139.9665  144.1548  163.7410 C.ar    1  UNL1        0.0331
      9 N         139.9852  144.5576  162.2963 N.ar    1  UNL1       -0.3289
     10 C         139.4213  145.8257  161.7271 C.3     1  UNL1        0.1301
     11 C         139.4259  144.8326  164.9651 C.3     1  UNL1        0.0435
     12 C         139.5554  144.1735  166.3063 C.3     1  UNL1        0.0066
     13 C         140.2255  142.8366  166.4235 C.3     1  UNL1        0.0049
     14 C         140.7661  142.1588  165.1994 C.3     1  UNL1        0.0275
     15 C         140.3550  142.1775  167.7647 C.3     1  UNL1        0.0053
     16 C         140.4667  140.6846  167.8590 C.3     1  UNL1        0.0322
     17 C         140.5962  140.0256  169.2002 C.3     1  UNL1        0.1422
     18 O         140.6140  140.8592  170.4470 O.3     1  UNL1       -0.3538
     19 C         140.5023  142.3521  170.3526 C.3     1  UNL1        0.1422
     20 C         140.3728  143.0112  169.0115 C.3     1  UNL1        0.0322
     21 C         142.7800  137.2529  159.4864 C.3     1  UNL1        0.1157
     22 N         142.0713  138.4786  159.9817 N.am    1  UNL1       -0.2660
     23 C         142.7930  139.7925  160.0344 C.2     1  UNL1        0.2494
     24 O         144.2235  139.8807  159.5917 O.2     1  UNL1       -0.2699
     25 C         140.6408  138.3904  160.4244 C.3     1  UNL1        0.1793
     26 C         140.3165  138.1020  161.8603 C.2     1  UNL1        0.2427
     27 O         141.0695  137.0362  162.5998 O.2     1  UNL1       -0.2732
     28 N         139.2391  138.8794  162.5566 N.am    1  UNL1       -0.3046
     29 H         138.7448  139.5790  162.0712 H       1  UNL1        0.1494
     30 C         138.9147  138.5911  163.9924 C.3     1  UNL1        0.0717
     31 C         138.4435  139.0597  165.3372 C.3     1  UNL1        0.0213
     32 C         138.8242  137.6230  165.1346 C.3     1  UNL1        0.0213
@<TRIPOS>BOND
     1    21    22    1
     2    22    25    1
     3    25    26    1
     4    26    27    2
     5    26    28   am
     6    28    30    1
     7    30    31    1
     8    31    32    1
     9    22    23   am
    10    23    24    2
    11    23     1    1
    12     1     2   ar
    13     2     3   ar
    14     3     4   ar
    15     4     5   ar
    16     5     6   ar
    17     5     7   ar
    18     7     8   ar
    19     8     9   ar
    20     9    10    1
    21     8    11    1
    22    11    12    1
    23    12    13    1
    24    13    15    1
    25    15    16    1
    26    16    17    1
    27    17    18    1
    28    18    19    1
    29    19    20    1
    30    13    14    1
    31    32    30    1
    32     6     1   ar
    33    14     7    1
    34     9     4   ar
    35    20    15    1
    36    28    29    1
@<TRIPOS>MOLECULE
*****
 32 36 0 0 0
SMALL
GASTEIGER

@<TRIPOS>ATOM
      1 C         140.4624  140.3982  160.0437 C.ar    1  UNL1        0.0537
      2 C         140.0239  141.6306  159.3096 C.ar    1  UNL1        0.0060
      3 C         139.6995  142.8815  160.0711 C.ar    1  UNL1        0.0173
      4 C         139.8138  142.9001  161.5666 C.ar    1  UNL1        0.0594
      5 C         140.2524  141.6677  162.3007 C.ar    1  UNL1        0.0130
      6 C         140.5767  140.4168  161.5392 C.ar    1  UNL1        0.0057
      7 C         140.2725  141.9840  163.7668 C.ar    1  UNL1       -0.0091
      8 C         139.8464  143.4119  163.9389 C.ar    1  UNL1        0.0331
      9 N         139.5629  143.9781  162.5791 N.ar    1  UNL1       -0.3289
     10 C         139.1083  145.3767  162.2836 C.3     1  UNL1        0.1301
     11 C         139.7716  144.0121  165.3115 C.3     1  UNL1        0.0435
     12 C         140.1230  143.1843  166.5122 C.3     1  UNL1        0.0066
     13 C         140.5491  141.7564  166.3401 C.3     1  UNL1        0.0049
     14 C         140.6239  141.1563  164.9674 C.3     1  UNL1        0.0275
     15 C         140.9004  140.9287  167.5407 C.3     1  UNL1        0.0053
     16 C         139.9741  140.8864  168.7197 C.3     1  UNL1        0.0322
     17 C         140.3254  140.0587  169.9202 C.3     1  UNL1        0.1422
     18 O         141.6031  139.2733  169.9418 O.3     1  UNL1       -0.3538
     19 C         142.5295  139.3155  168.7629 C.3     1  UNL1        0.1422
     20 C         142.1782  140.1432  167.5623 C.3     1  UNL1        0.0322
     21 C         142.5293  137.6021  158.1305 C.3     1  UNL1        0.1157
     22 N         142.2050  138.8531  158.8919 N.am    1  UNL1       -0.2660
     23 C         140.7868  139.1471  159.2822 C.2     1  UNL1        0.2494
     24 O         139.6930  138.1902  158.9110 O.2     1  UNL1       -0.2699
     25 C         143.2988  139.8100  159.2631 C.3     1  UNL1        0.1793
     26 C         143.9250  139.7418  160.6245 C.2     1  UNL1        0.2427
     27 O         144.3032  138.4138  161.2103 O.2     1  UNL1       -0.2732
     28 N         144.1730  141.0016  161.3999 N.am    1  UNL1       -0.3046
     29 H         143.9248  141.8733  161.0154 H       1  UNL1        0.1494
     30 C         144.7992  140.9335  162.7612 C.3     1  UNL1        0.0717
     31 C         145.8067  141.4325  163.7541 C.3     1  UNL1        0.0213
     32 C         144.8763  140.3164  164.1262 C.3     1  UNL1        0.0213
@<TRIPOS>BOND
     1    21    22    1
     2    22    25    1
     3    25    26    1
     4    26    27    2
     5    26    28   am
     6    28    30    1
     7    30    31    1
     8    31    32    1
     9    22    23   am
    10    23    24    2
    11    23     1    1
    12     1     2   ar
    13     2     3   ar
    14     3     4   ar
    15     4     5   ar
    16     5     6   ar
    17     5     7   ar
    18     7     8   ar
    19     8     9   ar
    20     9    10    1
    21     8    11    1
    22    11    12    1
    23    12    13    1
    24    13    15    1
    25    15    16    1
    26    16    17    1
    27    17    18    1
    28    18    19    1
    29    19    20    1
    30    13    14    1
    31    32    30    1
    32     6     1   ar
    33    14     7    1
    34     9     4   ar
    35    20    15    1
    36    28    29    1
@<TRIPOS>MOLECULE
*****
 32 36 0 0 0
SMALL
GASTEIGER

@<TRIPOS>ATOM
      1 C         140.2043  141.8413  160.7641 C.ar    1  UNL1        0.0537
      2 C         141.4923  141.9378  160.0014 C.ar    1  UNL1        0.0060
      3 C         142.7938  142.0491  160.7386 C.ar    1  UNL1        0.0173
      4 C         142.8074  142.0638  162.2385 C.ar    1  UNL1        0.0594
      5 C         141.5194  141.9674  163.0011 C.ar    1  UNL1        0.0130
      6 C         140.2179  141.8561  162.2639 C.ar    1  UNL1        0.0057
      7 C         141.8436  142.0068  164.4651 C.ar    1  UNL1       -0.0091
      8 C         143.3320  142.1276  164.6073 C.ar    1  UNL1        0.0331
      9 N         143.9277  142.1629  163.2311 N.ar    1  UNL1       -0.3289
     10 C         145.3873  142.2771  162.9049 C.3     1  UNL1        0.1301
     11 C         143.9525  142.1899  165.9715 C.3     1  UNL1        0.0435
     12 C         143.0847  142.1313  167.1936 C.3     1  UNL1        0.0066
     13 C         141.5963  142.0105  167.0515 C.3     1  UNL1        0.0049
     14 C         140.9758  141.9482  165.6872 C.3     1  UNL1        0.0275
     15 C         140.7284  141.9520  168.2735 C.3     1  UNL1        0.0053
     16 C         139.9306  140.7164  168.5683 C.3     1  UNL1        0.0322
     17 C         139.0628  140.6579  169.7903 C.3     1  UNL1        0.1422
     18 O         138.9928  141.8348  170.7175 O.3     1  UNL1       -0.3538
     19 C         139.7906  143.0703  170.4228 C.3     1  UNL1        0.1422
     20 C         140.6584  143.1289  169.2008 C.3     1  UNL1        0.0322
     21 C         137.1121  140.2776  158.8292 C.3     1  UNL1        0.1157
     22 N         138.4138  140.3889  159.5664 N.am    1  UNL1       -0.2660
     23 C         138.9026  141.7301  160.0269 C.2     1  UNL1        0.2494
     24 O         138.0899  142.9601  159.7503 O.2     1  UNL1       -0.2699
     25 C         139.2265  139.1589  159.8430 C.3     1  UNL1        0.1793
     26 C         139.2155  138.5447  161.2115 C.2     1  UNL1        0.2427
     27 O         137.9315  138.0323  161.7933 O.2     1  UNL1       -0.2732
     28 N         140.4887  138.4430  161.9981 N.am    1  UNL1       -0.3046
     29 H         141.3315  138.7793  161.6162 H       1  UNL1        0.1494
     30 C         140.4777  137.8289  163.3666 C.3     1  UNL1        0.0717
     31 C         141.0697  136.8865  164.3723 C.3     1  UNL1        0.0213
     32 C         139.8669  137.7077  164.7312 C.3     1  UNL1        0.0213
@<TRIPOS>BOND
     1    21    22    1
     2    22    25    1
     3    25    26    1
     4    26    27    2
     5    26    28   am
     6    28    30    1
     7    30    31    1
     8    31    32    1
     9    22    23   am
    10    23    24    2
    11    23     1    1
    12     1     2   ar
    13     2     3   ar
    14     3     4   ar
    15     4     5   ar
    16     5     6   ar
    17     5     7   ar
    18     7     8   ar
    19     8     9   ar
    20     9    10    1
    21     8    11    1
    22    11    12    1
    23    12    13    1
    24    13    15    1
    25    15    16    1
    26    16    17    1
    27    17    18    1
    28    18    19    1
    29    19    20    1
    30    13    14    1
    31    32    30    1
    32     6     1   ar
    33    14     7    1
    34     9     4   ar
    35    20    15    1
    36    28    29    1
@<TRIPOS>MOLECULE
*****
 32 36 0 0 0
SMALL
GASTEIGER

@<TRIPOS>ATOM
      1 C         140.4871  142.1197  169.0376 C.ar    1  UNL1        0.0537
      2 C         139.9543  140.8883  169.7082 C.ar    1  UNL1        0.0060
      3 C         139.2258  139.8523  168.9046 C.ar    1  UNL1        0.0173
      4 C         139.0302  140.0476  167.4303 C.ar    1  UNL1        0.0594
      5 C         139.5630  141.2790  166.7596 C.ar    1  UNL1        0.0130
      6 C         140.2914  142.3150  167.5633 C.ar    1  UNL1        0.0057
      7 C         139.2202  141.1978  165.3016 C.ar    1  UNL1       -0.0091
      8 C         138.4756  139.9163  165.0711 C.ar    1  UNL1        0.0331
      9 N         138.3581  139.2054  166.3867 N.ar    1  UNL1       -0.3289
     10 C         137.6865  137.8842  166.6181 C.3     1  UNL1        0.1301
     11 C         138.0007  139.5622  163.6930 C.3     1  UNL1        0.0435
     12 C         138.2704  140.4898  162.5454 C.3     1  UNL1        0.0066
     13 C         139.0151  141.7713  162.7759 C.3     1  UNL1        0.0049
     14 C         139.4900  142.1253  164.1540 C.3     1  UNL1        0.0275
     15 C         139.2849  142.6988  161.6283 C.3     1  UNL1        0.0053
     16 C         138.9520  142.2762  160.2281 C.3     1  UNL1        0.0322
     17 C         139.2217  143.2037  159.0806 C.3     1  UNL1        0.1422
     18 O         139.8244  144.5538  159.3332 O.3     1  UNL1       -0.3538
     19 C         140.1573  144.9765  160.7333 C.3     1  UNL1        0.1422
     20 C         139.8875  144.0490  161.8809 C.3     1  UNL1        0.0322
     21 C         143.3615  143.9501  171.0718 C.3     1  UNL1        0.1157
     22 N         142.6330  142.9140  170.2681 N.am    1  UNL1       -0.2660
     23 C         141.2156  143.1558  169.8413 C.2     1  UNL1        0.2494
     24 O         140.5265  144.4338  170.2181 O.2     1  UNL1       -0.2699
     25 C         143.3221  141.6360  169.8913 C.3     1  UNL1        0.1793
     26 C         143.2537  141.1353  168.4789 C.2     1  UNL1        0.2427
     27 O         143.4996  142.0761  167.3369 O.2     1  UNL1       -0.2732
     28 N         142.9395  139.6937  168.2087 N.am    1  UNL1       -0.3046
     29 H         142.7781  139.0762  168.9583 H       1  UNL1        0.1494
     30 C         142.8711  139.1929  166.7964 C.3     1  UNL1        0.0717
     31 C         143.5611  138.7581  165.5375 C.3     1  UNL1        0.0213
     32 C         142.0628  138.7605  165.6092 C.3     1  UNL1        0.0213
@<TRIPOS>BOND
     1    21    22    1
     2    22    25    1
     3    25    26    1
     4    26    27    2
     5    26    28   am
     6    28    30    1
     7    30    31    1
     8    31    32    1
     9    22    23   am
    10    23    24    2
    11    23     1    1
    12     1     2   ar
    13     2     3   ar
    14     3     4   ar
    15     4     5   ar
    16     5     6   ar
    17     5     7   ar
    18     7     8   ar
    19     8     9   ar
    20     9    10    1
    21     8    11    1
    22    11    12    1
    23    12    13    1
    24    13    15    1
    25    15    16    1
    26    16    17    1
    27    17    18    1
    28    18    19    1
    29    19    20    1
    30    13    14    1
    31    32    30    1
    32     6     1   ar
    33    14     7    1
    34     9     4   ar
    35    20    15    1
    36    28    29    1
@<TRIPOS>MOLECULE
*****
 32 36 0 0 0
SMALL
GASTEIGER

@<TRIPOS>ATOM
      1 C         141.6085  142.1173  159.5365 C.ar    1  UNL1        0.0537
      2 C         143.0421  142.4741  159.2767 C.ar    1  UNL1        0.0060
      3 C         144.0584  142.3408  160.3718 C.ar    1  UNL1        0.0173
      4 C         143.6412  141.8507  161.7266 C.ar    1  UNL1        0.0594
      5 C         142.2076  141.4939  161.9864 C.ar    1  UNL1        0.0130
      6 C         141.1913  141.6271  160.8914 C.ar    1  UNL1        0.0057
      7 C         142.0937  141.0413  163.4120 C.ar    1  UNL1       -0.0091
      8 C         143.4568  141.1184  164.0332 C.ar    1  UNL1        0.0331
      9 N         144.4133  141.6187  162.9916 N.ar    1  UNL1       -0.3289
     10 C         145.8836  141.8468  163.1816 C.3     1  UNL1        0.1301
     11 C         143.6510  140.7231  165.4671 C.3     1  UNL1        0.0435
     12 C         142.4820  140.2507  166.2798 C.3     1  UNL1        0.0066
     13 C         141.1189  140.1736  165.6586 C.3     1  UNL1        0.0049
     14 C         140.9247  140.5689  164.2246 C.3     1  UNL1        0.0275
     15 C         139.9499  139.7012  166.4712 C.3     1  UNL1        0.0053
     16 C         138.9353  138.7804  165.8608 C.3     1  UNL1        0.0322
     17 C         137.7664  138.3080  166.6734 C.3     1  UNL1        0.1422
     18 O         137.6120  138.7564  168.0963 O.3     1  UNL1       -0.3538
     19 C         138.6266  139.6773  168.7068 C.3     1  UNL1        0.1422
     20 C         139.7955  140.1497  167.8943 C.3     1  UNL1        0.0322
     21 C         139.0023  143.7297  157.0149 C.3     1  UNL1        0.1157
     22 N         140.0187  143.5964  158.1100 N.am    1  UNL1       -0.2660
     23 C         140.5921  142.2506  158.4414 C.2     1  UNL1        0.2494
     24 O         140.1491  141.0379  157.6777 O.2     1  UNL1       -0.2699
     25 C         140.4617  144.8091  158.8737 C.3     1  UNL1        0.1793
     26 C         140.4442  144.7986  160.3736 C.2     1  UNL1        0.2427
     27 O         139.1731  144.4875  161.1067 O.2     1  UNL1       -0.2732
     28 N         141.6979  145.0991  161.1404 N.am    1  UNL1       -0.3046
     29 H         142.5322  145.3032  160.6592 H       1  UNL1        0.1494
     30 C         141.6805  145.0886  162.6402 C.3     1  UNL1        0.0717
     31 C         140.9230  144.9733  163.9298 C.3     1  UNL1        0.0213
     32 C         142.4077  145.1857  163.9485 C.3     1  UNL1        0.0213
@<TRIPOS>BOND
     1    21    22    1
     2    22    25    1
     3    25    26    1
     4    26    27    2
     5    26    28   am
     6    28    30    1
     7    30    31    1
     8    31    32    1
     9    22    23   am
    10    23    24    2
    11    23     1    1
    12     1     2   ar
    13     2     3   ar
    14     3     4   ar
    15     4     5   ar
    16     5     6   ar
    17     5     7   ar
    18     7     8   ar
    19     8     9   ar
    20     9    10    1
    21     8    11    1
    22    11    12    1
    23    12    13    1
    24    13    15    1
    25    15    16    1
    26    16    17    1
    27    17    18    1
    28    18    19    1
    29    19    20    1
    30    13    14    1
    31    32    30    1
    32     6     1   ar
    33    14     7    1
    34     9     4   ar
    35    20    15    1
    36    28    29    1
@<TRIPOS>MOLECULE
*****
 32 36 0 0 0
SMALL
GASTEIGER

@<TRIPOS>ATOM
      1 C         140.9831  141.8391  158.6752 C.ar    1  UNL1        0.0537
      2 C         140.9594  143.2342  158.1247 C.ar    1  UNL1        0.0060
      3 C         140.5710  144.3825  159.0082 C.ar    1  UNL1        0.0173
      4 C         140.2064  144.1357  160.4421 C.ar    1  UNL1        0.0594
      5 C         140.2301  142.7406  160.9926 C.ar    1  UNL1        0.0130
      6 C         140.6185  141.5923  160.1091 C.ar    1  UNL1        0.0057
      7 C         139.8240  142.8045  162.4351 C.ar    1  UNL1       -0.0091
      8 C         139.5494  144.2392  162.7763 C.ar    1  UNL1        0.0331
      9 N         139.7857  145.0619  161.5445 N.ar    1  UNL1       -0.3289
     10 C         139.6288  146.5496  161.4344 C.3     1  UNL1        0.1301
     11 C         139.1195  144.6110  164.1644 C.3     1  UNL1        0.0435
     12 C         138.9644  143.5481  165.2115 C.3     1  UNL1        0.0066
     13 C         139.2390  142.1135  164.8704 C.3     1  UNL1        0.0049
     14 C         139.6689  141.7417  163.4822 C.3     1  UNL1        0.0275
     15 C         139.0839  141.0506  165.9174 C.3     1  UNL1        0.0053
     16 C         138.1752  139.8828  165.6717 C.3     1  UNL1        0.0322
     17 C         138.0201  138.8199  166.7187 C.3     1  UNL1        0.1422
     18 O         138.7736  138.9249  168.0114 O.3     1  UNL1       -0.3538
     19 C         139.6823  140.0928  168.2571 C.3     1  UNL1        0.1422
     20 C         139.8375  141.1556  167.2102 C.3     1  UNL1        0.0322
     21 C         143.1240  138.9309  157.0293 C.3     1  UNL1        0.1157
     22 N         142.7357  140.0793  157.9127 N.am    1  UNL1       -0.2660
     23 C         141.3714  140.6907  157.7917 C.2     1  UNL1        0.2494
     24 O         140.3953  140.1539  156.7872 O.2     1  UNL1       -0.2699
     25 C         143.7118  140.6162  158.9173 C.3     1  UNL1        0.1793
     26 C         143.6902  140.1095  160.3290 C.2     1  UNL1        0.2427
     27 O         143.0228  138.8045  160.6473 O.2     1  UNL1       -0.2732
     28 N         144.3360  140.9079  161.4223 N.am    1  UNL1       -0.3046
     29 H         144.7741  141.7645  161.2134 H       1  UNL1        0.1494
     30 C         144.3145  140.4013  162.8340 C.3     1  UNL1        0.0717
     31 C         143.5633  140.1175  164.1010 C.3     1  UNL1        0.0213
     32 C         145.0282  139.8076  164.0121 C.3     1  UNL1        0.0213
@<TRIPOS>BOND
     1    21    22    1
     2    22    25    1
     3    25    26    1
     4    26    27    2
     5    26    28   am
     6    28    30    1
     7    30    31    1
     8    31    32    1
     9    22    23   am
    10    23    24    2
    11    23     1    1
    12     1     2   ar
    13     2     3   ar
    14     3     4   ar
    15     4     5   ar
    16     5     6   ar
    17     5     7   ar
    18     7     8   ar
    19     8     9   ar
    20     9    10    1
    21     8    11    1
    22    11    12    1
    23    12    13    1
    24    13    15    1
    25    15    16    1
    26    16    17    1
    27    17    18    1
    28    18    19    1
    29    19    20    1
    30    13    14    1
    31    32    30    1
    32     6     1   ar
    33    14     7    1
    34     9     4   ar
    35    20    15    1
    36    28    29    1
