@<TRIPOS>MOLECULE
*****
 33 36 0 0 0
SMALL
GASTEIGER

@<TRIPOS>ATOM
      1 O         138.7627  139.4879  168.2905 O.2     1  UNL1       -0.2698
      2 C         140.0292  140.0717  167.7381 C.2     1  UNL1        0.2516
      3 N         140.4668  139.7307  166.3445 N.am    1  UNL1       -0.2659
      4 C         141.7333  140.3145  165.7921 C.3     1  UNL1        0.1160
      5 C         142.1710  139.9734  164.3984 C.3     1  UNL1        0.1197
      6 N         141.3421  139.0486  163.5573 N.am    1  UNL1       -0.2555
      7 C         140.0756  138.4648  164.1097 C.2     1  UNL1        0.2497
      8 O         139.2467  137.5399  163.2685 O.2     1  UNL1       -0.2727
      9 C         139.6380  138.8058  165.5033 C.3     1  UNL1        0.1799
     10 C         140.8581  140.9966  168.5794 C.ar    1  UNL1        0.0811
     11 C         140.3986  142.4035  168.8227 C.ar    1  UNL1        0.0091
     12 C         141.2274  143.3283  169.6639 C.ar    1  UNL1        0.0299
     13 C         142.5158  142.8462  170.2618 C.ar    1  UNL1        0.1424
     14 F         143.3447  143.7710  171.1031 F       1  UNL1       -0.2041
     15 C         142.9754  141.4392  170.0185 C.ar    1  UNL1        0.0594
     16 C         142.1465  140.5144  169.1773 C.ar    1  UNL1        0.1467
     17 F         142.6061  139.1074  168.9339 F       1  UNL1       -0.2039
     18 C         141.7797  138.7075  162.1637 C.ar    1  UNL1        0.0541
     19 C         143.0798  137.9938  161.9394 C.ar    1  UNL1        0.0180
     20 C         143.5174  137.6528  160.5457 C.ar    1  UNL1        0.0382
     21 C         142.6550  138.0255  159.3764 C.ar    1  UNL1        0.1386
     22 C         141.3549  138.7392  159.6008 C.ar    1  UNL1        0.0382
     23 C         140.9172  139.0802  160.9943 C.ar    1  UNL1        0.0180
     24 O         143.0926  137.6844  157.9828 O.3     1  UNL1       -0.4754
     25 C         142.2159  136.8392  157.1071 C.3     1  UNL1        0.2068
     26 C         142.8227  135.7729  156.2441 C.3     1  UNL1        0.0646
     27 C         142.2466  134.3880  156.2465 C.3     1  UNL1        0.0759
     28 N         143.0644  133.2363  156.7512 N.3     1  UNL1       -0.2726
     29 C         144.3130  133.4927  157.5419 C.3     1  UNL1        0.0721
     30 C         145.1309  132.3409  158.0466 C.3     1  UNL1        0.0174
     31 C         144.7001  130.9329  157.7606 C.3     1  UNL1        0.0029
     32 C         143.4514  130.6765  156.9700 C.3     1  UNL1        0.0174
     33 C         142.6336  131.8282  156.4653 C.3     1  UNL1        0.0721
@<TRIPOS>BOND
     1     1     2    2
     2     2    10    1
     3    10    11   ar
     4    11    12   ar
     5    12    13   ar
     6    13    14    1
     7    13    15   ar
     8    15    16   ar
     9    16    17    1
    10     2     3   am
    11     3     4    1
    12     4     5    1
    13     5     6    1
    14     6    18    1
    15    18    19   ar
    16    19    20   ar
    17    20    21   ar
    18    21    24    1
    19    24    25    1
    20    25    26    1
    21    26    27    1
    22    27    28    1
    23    28    29    1
    24    29    30    1
    25    30    31    1
    26    31    32    1
    27    32    33    1
    28    21    22   ar
    29    22    23   ar
    30     6     7   am
    31     7     8    2
    32     7     9    1
    33    16    10   ar
    34     9     3    1
    35    23    18   ar
    36    33    28    1
@<TRIPOS>MOLECULE
*****
 33 36 0 0 0
SMALL
GASTEIGER

@<TRIPOS>ATOM
      1 O         138.7769  139.4520  168.5427 O.2     1  UNL1       -0.2698
      2 C         139.9749  140.0700  167.8849 C.2     1  UNL1        0.2516
      3 N         140.2819  139.7662  166.4484 N.am    1  UNL1       -0.2659
      4 C         141.4799  140.3842  165.7906 C.3     1  UNL1        0.1160
      5 C         141.7869  140.0804  164.3541 C.3     1  UNL1        0.1197
      6 N         140.8959  139.1585  163.5755 N.am    1  UNL1       -0.2555
      7 C         139.6978  138.5405  164.2333 C.2     1  UNL1        0.2497
      8 O         138.8068  137.6187  163.4547 O.2     1  UNL1       -0.2727
      9 C         139.3908  138.8444  165.6698 C.3     1  UNL1        0.1799
     10 C         140.8660  140.9919  168.6635 C.ar    1  UNL1        0.0811
     11 C         140.4251  142.3968  168.9495 C.ar    1  UNL1        0.0091
     12 C         141.3162  143.3186  169.7281 C.ar    1  UNL1        0.0299
     13 C         142.6481  142.8355  170.2208 C.ar    1  UNL1        0.1424
     14 F         143.5391  143.7573  170.9995 F       1  UNL1       -0.2041
     15 C         143.0889  141.4305  169.9348 C.ar    1  UNL1        0.0594
     16 C         142.1978  140.5088  169.1562 C.ar    1  UNL1        0.1467
     17 F         142.6386  139.1037  168.8702 F       1  UNL1       -0.2039
     18 C         141.2028  138.8547  162.1390 C.ar    1  UNL1        0.0541
     19 C         140.4195  139.5215  161.0474 C.ar    1  UNL1        0.0180
     20 C         140.7265  139.2177  159.6109 C.ar    1  UNL1        0.0382
     21 C         141.8169  138.2470  159.2661 C.ar    1  UNL1        0.1386
     22 C         142.6003  137.5802  160.3577 C.ar    1  UNL1        0.0382
     23 C         142.2933  137.8841  161.7942 C.ar    1  UNL1        0.0180
     24 O         142.1239  137.9432  157.8297 O.3     1  UNL1       -0.4754
     25 C         143.1951  138.7107  157.1131 C.3     1  UNL1        0.2068
     26 C         143.5647  138.3466  155.7056 C.3     1  UNL1        0.0646
     27 C         144.2807  137.0581  155.4276 C.3     1  UNL1        0.0759
     28 N         143.5298  135.7601  155.4630 N.3     1  UNL1       -0.2726
     29 C         143.6118  134.8790  156.6741 C.3     1  UNL1        0.0721
     30 C         142.8609  133.5809  156.7095 C.3     1  UNL1        0.0174
     31 C         142.0281  133.1640  155.5337 C.3     1  UNL1        0.0029
     32 C         141.9461  134.0451  154.3225 C.3     1  UNL1        0.0174
     33 C         142.6970  135.3431  154.2871 C.3     1  UNL1        0.0721
@<TRIPOS>BOND
     1     1     2    2
     2     2    10    1
     3    10    11   ar
     4    11    12   ar
     5    12    13   ar
     6    13    14    1
     7    13    15   ar
     8    15    16   ar
     9    16    17    1
    10     2     3   am
    11     3     4    1
    12     4     5    1
    13     5     6    1
    14     6    18    1
    15    18    19   ar
    16    19    20   ar
    17    20    21   ar
    18    21    24    1
    19    24    25    1
    20    25    26    1
    21    26    27    1
    22    27    28    1
    23    28    29    1
    24    29    30    1
    25    30    31    1
    26    31    32    1
    27    32    33    1
    28    21    22   ar
    29    22    23   ar
    30     6     7   am
    31     7     8    2
    32     7     9    1
    33    16    10   ar
    34     9     3    1
    35    23    18   ar
    36    33    28    1
@<TRIPOS>MOLECULE
*****
 33 36 0 0 0
SMALL
GASTEIGER

@<TRIPOS>ATOM
      1 O         138.7978  139.4351  168.3979 O.2     1  UNL1       -0.2698
      2 C         140.0151  140.0719  167.7956 C.2     1  UNL1        0.2516
      3 N         140.3897  139.7772  166.3734 N.am    1  UNL1       -0.2659
      4 C         141.6070  140.4140  165.7711 C.3     1  UNL1        0.1160
      5 C         141.9817  140.1192  164.3488 C.3     1  UNL1        0.1197
      6 N         141.1391  139.1877  163.5290 N.am    1  UNL1       -0.2555
      7 C         139.9218  138.5509  164.1313 C.2     1  UNL1        0.2497
      8 O         139.0793  137.6194  163.3114 O.2     1  UNL1       -0.2727
      9 C         139.5472  138.8456  165.5535 C.3     1  UNL1        0.1799
     10 C         140.8576  141.0035  168.6156 C.ar    1  UNL1        0.0811
     11 C         140.3979  142.4098  168.8624 C.ar    1  UNL1        0.0091
     12 C         141.2405  143.3412  169.6823 C.ar    1  UNL1        0.0299
     13 C         142.5428  142.8665  170.2555 C.ar    1  UNL1        0.1424
     14 F         143.3854  143.7980  171.0755 F       1  UNL1       -0.2041
     15 C         143.0025  141.4602  170.0087 C.ar    1  UNL1        0.0594
     16 C         142.1600  140.5287  169.1888 C.ar    1  UNL1        0.1467
     17 F         142.6197  139.1223  168.9420 F       1  UNL1       -0.2039
     18 C         141.5138  138.8930  162.1067 C.ar    1  UNL1        0.0541
     19 C         142.6837  138.0029  161.8084 C.ar    1  UNL1        0.0180
     20 C         143.0584  137.7082  160.3861 C.ar    1  UNL1        0.0382
     21 C         142.2631  138.3036  159.2622 C.ar    1  UNL1        0.1386
     22 C         141.0932  139.1936  159.5606 C.ar    1  UNL1        0.0382
     23 C         140.7185  139.4884  160.9828 C.ar    1  UNL1        0.0180
     24 O         142.6378  138.0089  157.8400 O.3     1  UNL1       -0.4754
     25 C         143.0176  139.1286  156.9170 C.3     1  UNL1        0.2068
     26 C         143.9224  140.2237  157.3990 C.3     1  UNL1        0.0646
     27 C         143.3625  141.5836  157.6944 C.3     1  UNL1        0.0759
     28 N         143.1699  142.0228  159.1156 N.3     1  UNL1       -0.2726
     29 C         142.1490  143.0714  159.4447 C.3     1  UNL1        0.0721
     30 C         141.9564  143.5107  160.8660 C.3     1  UNL1        0.0174
     31 C         142.7847  142.9013  161.9581 C.3     1  UNL1        0.0029
     32 C         143.8056  141.8528  161.6290 C.3     1  UNL1        0.0174
     33 C         143.9982  141.4135  160.2078 C.3     1  UNL1        0.0721
@<TRIPOS>BOND
     1     1     2    2
     2     2    10    1
     3    10    11   ar
     4    11    12   ar
     5    12    13   ar
     6    13    14    1
     7    13    15   ar
     8    15    16   ar
     9    16    17    1
    10     2     3   am
    11     3     4    1
    12     4     5    1
    13     5     6    1
    14     6    18    1
    15    18    19   ar
    16    19    20   ar
    17    20    21   ar
    18    21    24    1
    19    24    25    1
    20    25    26    1
    21    26    27    1
    22    27    28    1
    23    28    29    1
    24    29    30    1
    25    30    31    1
    26    31    32    1
    27    32    33    1
    28    21    22   ar
    29    22    23   ar
    30     6     7   am
    31     7     8    2
    32     7     9    1
    33    16    10   ar
    34     9     3    1
    35    23    18   ar
    36    33    28    1
@<TRIPOS>MOLECULE
*****
 33 36 0 0 0
SMALL
GASTEIGER

@<TRIPOS>ATOM
      1 O         143.3255  138.8367  167.9189 O.2     1  UNL1       -0.2698
      2 C         142.2193  139.7035  167.3943 C.2     1  UNL1        0.2516
      3 N         141.8765  139.6802  165.9343 N.am    1  UNL1       -0.2659
      4 C         140.7703  140.5469  165.4097 C.3     1  UNL1        0.1160
      5 C         140.4274  140.5236  163.9495 C.3     1  UNL1        0.1197
      6 N         141.1907  139.6335  163.0140 N.am    1  UNL1       -0.2555
      7 C         142.2969  138.7668  163.5386 C.2     1  UNL1        0.2497
      8 O         143.0601  137.8767  162.6031 O.2     1  UNL1       -0.2727
      9 C         142.6397  138.7901  164.9987 C.3     1  UNL1        0.1799
     10 C         141.4561  140.5936  168.3299 C.ar    1  UNL1        0.0811
     11 C         140.1950  140.0989  168.9742 C.ar    1  UNL1        0.0091
     12 C         139.4318  140.9890  169.9097 C.ar    1  UNL1        0.0299
     13 C         139.9297  142.3737  170.2010 C.ar    1  UNL1        0.1424
     14 F         139.1664  143.2638  171.1365 F       1  UNL1       -0.2041
     15 C         141.1907  142.8683  169.5567 C.ar    1  UNL1        0.0594
     16 C         141.9539  141.9782  168.6212 C.ar    1  UNL1        0.1467
     17 F         143.2150  142.4728  167.9769 F       1  UNL1       -0.2039
     18 C         140.8478  139.6102  161.5540 C.ar    1  UNL1        0.0541
     19 C         139.7227  138.7492  161.0614 C.ar    1  UNL1        0.0180
     20 C         139.3798  138.7259  159.6013 C.ar    1  UNL1        0.0382
     21 C         140.1621  139.5637  158.6338 C.ar    1  UNL1        0.1386
     22 C         141.2872  140.4247  159.1263 C.ar    1  UNL1        0.0382
     23 C         141.6301  140.4480  160.5864 C.ar    1  UNL1        0.0180
     24 O         139.8192  139.5404  157.1737 O.3     1  UNL1       -0.4754
     25 C         139.1446  140.7223  156.5427 C.3     1  UNL1        0.2068
     26 C         138.1815  141.5504  157.3407 C.3     1  UNL1        0.0646
     27 C         138.5550  142.9424  157.7566 C.3     1  UNL1        0.0759
     28 N         138.9732  143.2158  159.1709 N.3     1  UNL1       -0.2726
     29 C         140.0234  144.2481  159.4562 C.3     1  UNL1        0.0721
     30 C         140.4417  144.5215  160.8706 C.3     1  UNL1        0.0174
     31 C         139.8097  143.7626  161.9996 C.3     1  UNL1        0.0029
     32 C         138.7595  142.7303  161.7143 C.3     1  UNL1        0.0174
     33 C         138.3412  142.4569  160.3000 C.3     1  UNL1        0.0721
@<TRIPOS>BOND
     1     1     2    2
     2     2    10    1
     3    10    11   ar
     4    11    12   ar
     5    12    13   ar
     6    13    14    1
     7    13    15   ar
     8    15    16   ar
     9    16    17    1
    10     2     3   am
    11     3     4    1
    12     4     5    1
    13     5     6    1
    14     6    18    1
    15    18    19   ar
    16    19    20   ar
    17    20    21   ar
    18    21    24    1
    19    24    25    1
    20    25    26    1
    21    26    27    1
    22    27    28    1
    23    28    29    1
    24    29    30    1
    25    30    31    1
    26    31    32    1
    27    32    33    1
    28    21    22   ar
    29    22    23   ar
    30     6     7   am
    31     7     8    2
    32     7     9    1
    33    16    10   ar
    34     9     3    1
    35    23    18   ar
    36    33    28    1
@<TRIPOS>MOLECULE
*****
 33 36 0 0 0
SMALL
GASTEIGER

@<TRIPOS>ATOM
      1 O         143.2374  138.8177  168.0527 O.2     1  UNL1       -0.2698
      2 C         142.3927  139.9254  167.4962 C.2     1  UNL1        0.2516
      3 N         142.3478  140.1631  166.0159 N.am    1  UNL1       -0.2659
      4 C         141.5031  141.2707  165.4594 C.3     1  UNL1        0.1160
      5 C         141.4583  141.5085  163.9790 C.3     1  UNL1        0.1197
      6 N         142.2581  140.6386  163.0551 N.am    1  UNL1       -0.2555
      7 C         143.1028  139.5310  163.6116 C.2     1  UNL1        0.2497
      8 O         143.9027  138.6611  162.6878 O.2     1  UNL1       -0.2727
      9 C         143.1477  139.2932  165.0919 C.3     1  UNL1        0.1799
     10 C         141.5928  140.7952  168.4202 C.ar    1  UNL1        0.0811
     11 C         140.2577  140.3294  168.9205 C.ar    1  UNL1        0.0091
     12 C         139.4579  141.1993  169.8444 C.ar    1  UNL1        0.0299
     13 C         139.9932  142.5349  170.2679 C.ar    1  UNL1        0.1424
     14 F         139.1933  143.4048  171.1919 F       1  UNL1       -0.2041
     15 C         141.3283  143.0008  169.7676 C.ar    1  UNL1        0.0594
     16 C         142.1281  142.1309  168.8437 C.ar    1  UNL1        0.1467
     17 F         143.4633  142.5967  168.3433 F       1  UNL1       -0.2039
     18 C         142.2133  140.8764  161.5748 C.ar    1  UNL1        0.0541
     19 C         143.0165  141.9890  160.9692 C.ar    1  UNL1        0.0180
     20 C         142.9716  142.2268  159.4888 C.ar    1  UNL1        0.0382
     21 C         142.1235  141.3519  158.6141 C.ar    1  UNL1        0.1386
     22 C         141.3203  140.2392  159.2197 C.ar    1  UNL1        0.0382
     23 C         141.3651  140.0014  160.7000 C.ar    1  UNL1        0.0180
     24 O         142.0787  141.5896  157.1338 O.3     1  UNL1       -0.4754
     25 C         140.7622  141.8076  156.4487 C.3     1  UNL1        0.2068
     26 C         140.0052  143.0841  156.6672 C.3     1  UNL1        0.0646
     27 C         138.9556  143.1600  157.7361 C.3     1  UNL1        0.0759
     28 N         139.3347  143.5537  159.1329 N.3     1  UNL1       -0.2726
     29 C         138.8115  142.7713  160.3009 C.3     1  UNL1        0.0721
     30 C         139.1907  143.1651  161.6978 C.3     1  UNL1        0.0174
     31 C         140.0930  144.3413  161.9267 C.3     1  UNL1        0.0029
     32 C         140.6162  145.1237  160.7587 C.3     1  UNL1        0.0174
     33 C         140.2371  144.7300  159.3619 C.3     1  UNL1        0.0721
@<TRIPOS>BOND
     1     1     2    2
     2     2    10    1
     3    10    11   ar
     4    11    12   ar
     5    12    13   ar
     6    13    14    1
     7    13    15   ar
     8    15    16   ar
     9    16    17    1
    10     2     3   am
    11     3     4    1
    12     4     5    1
    13     5     6    1
    14     6    18    1
    15    18    19   ar
    16    19    20   ar
    17    20    21   ar
    18    21    24    1
    19    24    25    1
    20    25    26    1
    21    26    27    1
    22    27    28    1
    23    28    29    1
    24    29    30    1
    25    30    31    1
    26    31    32    1
    27    32    33    1
    28    21    22   ar
    29    22    23   ar
    30     6     7   am
    31     7     8    2
    32     7     9    1
    33    16    10   ar
    34     9     3    1
    35    23    18   ar
    36    33    28    1
@<TRIPOS>MOLECULE
*****
 33 36 0 0 0
SMALL
GASTEIGER

@<TRIPOS>ATOM
      1 O         144.8251  137.5148  155.7151 O.2     1  UNL1       -0.2698
      2 C         143.4098  137.1051  155.9958 C.2     1  UNL1        0.2516
      3 N         142.5570  137.9323  156.9114 N.am    1  UNL1       -0.2659
      4 C         141.1416  137.5225  157.1921 C.3     1  UNL1        0.1160
      5 C         140.2888  138.3498  158.1078 C.3     1  UNL1        0.1197
      6 N         140.8514  139.5868  158.7427 N.am    1  UNL1       -0.2555
      7 C         142.2668  139.9966  158.4620 C.2     1  UNL1        0.2497
      8 O         142.8294  141.2337  159.0970 O.2     1  UNL1       -0.2727
      9 C         143.1196  139.1694  157.5464 C.3     1  UNL1        0.1799
     10 C         142.8472  135.8679  155.3608 C.ar    1  UNL1        0.0811
     11 C         142.3911  135.8992  153.9322 C.ar    1  UNL1        0.0091
     12 C         141.8286  134.6622  153.2973 C.ar    1  UNL1        0.0299
     13 C         141.7221  133.3938  154.0910 C.ar    1  UNL1        0.1424
     14 F         141.1595  132.1567  153.4560 F       1  UNL1       -0.2041
     15 C         142.1781  133.3625  155.5196 C.ar    1  UNL1        0.0594
     16 C         142.7407  134.5996  156.1545 C.ar    1  UNL1        0.1467
     17 F         143.1968  134.5684  157.5832 F       1  UNL1       -0.2039
     18 C         139.9986  140.4141  159.6583 C.ar    1  UNL1        0.0541
     19 C         139.8492  140.0251  161.0993 C.ar    1  UNL1        0.0180
     20 C         138.9964  140.8524  162.0149 C.ar    1  UNL1        0.0382
     21 C         138.2930  142.0686  161.4896 C.ar    1  UNL1        0.1386
     22 C         138.4424  142.4576  160.0486 C.ar    1  UNL1        0.0382
     23 C         139.2952  141.6304  159.1330 C.ar    1  UNL1        0.0180
     24 O         137.4402  142.8959  162.4052 O.3     1  UNL1       -0.4754
     25 C         137.7207  142.9141  163.8786 C.3     1  UNL1        0.2068
     26 C         138.1435  144.1893  164.5459 C.3     1  UNL1        0.0646
     27 C         139.5456  144.6949  164.3773 C.3     1  UNL1        0.0759
     28 N         140.1821  144.7018  163.0191 N.3     1  UNL1       -0.2726
     29 C         141.3267  143.7787  162.7226 C.3     1  UNL1        0.0721
     30 C         141.9633  143.7856  161.3643 C.3     1  UNL1        0.0174
     31 C         141.4553  144.7154  160.3026 C.3     1  UNL1        0.0029
     32 C         140.3106  145.6384  160.5991 C.3     1  UNL1        0.0174
     33 C         139.6741  145.6316  161.9573 C.3     1  UNL1        0.0721
@<TRIPOS>BOND
     1     1     2    2
     2     2    10    1
     3    10    11   ar
     4    11    12   ar
     5    12    13   ar
     6    13    14    1
     7    13    15   ar
     8    15    16   ar
     9    16    17    1
    10     2     3   am
    11     3     4    1
    12     4     5    1
    13     5     6    1
    14     6    18    1
    15    18    19   ar
    16    19    20   ar
    17    20    21   ar
    18    21    24    1
    19    24    25    1
    20    25    26    1
    21    26    27    1
    22    27    28    1
    23    28    29    1
    24    29    30    1
    25    30    31    1
    26    31    32    1
    27    32    33    1
    28    21    22   ar
    29    22    23   ar
    30     6     7   am
    31     7     8    2
    32     7     9    1
    33    16    10   ar
    34     9     3    1
    35    23    18   ar
    36    33    28    1
@<TRIPOS>MOLECULE
*****
 33 36 0 0 0
SMALL
GASTEIGER

@<TRIPOS>ATOM
      1 O         143.2840  138.8315  167.9824 O.2     1  UNL1       -0.2698
      2 C         142.2097  139.7299  167.4449 C.2     1  UNL1        0.2516
      3 N         141.8867  139.7197  165.9802 N.am    1  UNL1       -0.2659
      4 C         140.8124  140.6181  165.4427 C.3     1  UNL1        0.1160
      5 C         140.4895  140.6078  163.9779 C.3     1  UNL1        0.1197
      6 N         141.2408  139.6993  163.0506 N.am    1  UNL1       -0.2555
      7 C         142.3151  138.8009  163.5880 C.2     1  UNL1        0.2497
      8 O         143.0664  137.8923  162.6607 O.2     1  UNL1       -0.2727
      9 C         142.6381  138.8111  165.0528 C.3     1  UNL1        0.1799
     10 C         141.4583  140.6385  168.3723 C.ar    1  UNL1        0.0811
     11 C         140.1749  140.1776  168.9971 C.ar    1  UNL1        0.0091
     12 C         139.4236  141.0862  169.9245 C.ar    1  UNL1        0.0299
     13 C         139.9558  142.4556  170.2270 C.ar    1  UNL1        0.1424
     14 F         139.2044  143.3642  171.1545 F       1  UNL1       -0.2041
     15 C         141.2392  142.9164  169.6023 C.ar    1  UNL1        0.0594
     16 C         141.9905  142.0078  168.6749 C.ar    1  UNL1        0.1467
     17 F         143.2740  142.4686  168.0501 F       1  UNL1       -0.2039
     18 C         140.9179  139.6891  161.5858 C.ar    1  UNL1        0.0541
     19 C         139.6954  138.9736  161.0923 C.ar    1  UNL1        0.0180
     20 C         139.3725  138.9634  159.6274 C.ar    1  UNL1        0.0382
     21 C         140.2720  139.6688  158.6562 C.ar    1  UNL1        0.1386
     22 C         141.4945  140.3843  159.1498 C.ar    1  UNL1        0.0382
     23 C         141.8174  140.3944  160.6145 C.ar    1  UNL1        0.0180
     24 O         139.9491  139.6586  157.1915 O.3     1  UNL1       -0.4754
     25 C         140.6161  138.6686  156.2832 C.3     1  UNL1        0.2068
     26 C         140.9762  137.3053  156.7950 C.3     1  UNL1        0.0646
     27 C         142.2314  136.6340  156.3220 C.3     1  UNL1        0.0759
     28 N         142.3096  135.1367  156.2762 N.3     1  UNL1       -0.2726
     29 C         141.4328  134.3684  155.3324 C.3     1  UNL1        0.0721
     30 C         141.5111  132.8711  155.2866 C.3     1  UNL1        0.0174
     31 C         142.4662  132.1422  156.1846 C.3     1  UNL1        0.0029
     32 C         143.3430  132.9105  157.1284 C.3     1  UNL1        0.0174
     33 C         143.2648  134.4078  157.1742 C.3     1  UNL1        0.0721
@<TRIPOS>BOND
     1     1     2    2
     2     2    10    1
     3    10    11   ar
     4    11    12   ar
     5    12    13   ar
     6    13    14    1
     7    13    15   ar
     8    15    16   ar
     9    16    17    1
    10     2     3   am
    11     3     4    1
    12     4     5    1
    13     5     6    1
    14     6    18    1
    15    18    19   ar
    16    19    20   ar
    17    20    21   ar
    18    21    24    1
    19    24    25    1
    20    25    26    1
    21    26    27    1
    22    27    28    1
    23    28    29    1
    24    29    30    1
    25    30    31    1
    26    31    32    1
    27    32    33    1
    28    21    22   ar
    29    22    23   ar
    30     6     7   am
    31     7     8    2
    32     7     9    1
    33    16    10   ar
    34     9     3    1
    35    23    18   ar
    36    33    28    1
@<TRIPOS>MOLECULE
*****
 33 36 0 0 0
SMALL
GASTEIGER

@<TRIPOS>ATOM
      1 O         139.0519  139.5030  168.1001 O.2     1  UNL1       -0.2698
      2 C         140.2850  140.1840  167.5844 C.2     1  UNL1        0.2516
      3 N         140.7331  139.9548  166.1714 N.am    1  UNL1       -0.2659
      4 C         141.9661  140.6358  165.6558 C.3     1  UNL1        0.1160
      5 C         142.4142  140.4066  164.2427 C.3     1  UNL1        0.1197
      6 N         141.6292  139.4965  163.3453 N.am    1  UNL1       -0.2555
      7 C         140.3961  138.8155  163.8609 C.2     1  UNL1        0.2497
      8 O         139.6111  137.9054  162.9635 O.2     1  UNL1       -0.2727
      9 C         139.9480  139.0447  165.2739 C.3     1  UNL1        0.1799
     10 C         141.0700  141.0942  168.4819 C.ar    1  UNL1        0.0811
     11 C         140.5117  142.4320  168.8671 C.ar    1  UNL1        0.0091
     12 C         141.2967  143.3421  169.7645 C.ar    1  UNL1        0.0299
     13 C         142.6400  142.9143  170.2768 C.ar    1  UNL1        0.1424
     14 F         143.4250  143.8245  171.1743 F       1  UNL1       -0.2041
     15 C         143.1983  141.5765  169.8917 C.ar    1  UNL1        0.0594
     16 C         142.4133  140.6664  168.9942 C.ar    1  UNL1        0.1467
     17 F         142.9717  139.3285  168.6091 F       1  UNL1       -0.2039
     18 C         142.0772  139.2673  161.9323 C.ar    1  UNL1        0.0541
     19 C         142.0776  140.4027  160.9521 C.ar    1  UNL1        0.0180
     20 C         142.5257  140.1735  159.5390 C.ar    1  UNL1        0.0382
     21 C         142.9734  138.8089  159.1062 C.ar    1  UNL1        0.1386
     22 C         142.9730  137.6735  160.0864 C.ar    1  UNL1        0.0382
     23 C         142.5250  137.9026  161.4994 C.ar    1  UNL1        0.0180
     24 O         143.4214  138.5797  157.6931 O.3     1  UNL1       -0.4754
     25 C         142.4273  138.1663  156.6488 C.3     1  UNL1        0.2068
     26 C         141.3261  137.2096  156.9986 C.3     1  UNL1        0.0646
     27 C         139.8943  137.6456  156.8995 C.3     1  UNL1        0.0759
     28 N         139.3846  138.7512  157.7757 N.3     1  UNL1       -0.2726
     29 C         139.2615  138.5393  159.2556 C.3     1  UNL1        0.0721
     30 C         138.7518  139.6450  160.1317 C.3     1  UNL1        0.0174
     31 C         138.3652  140.9626  159.5281 C.3     1  UNL1        0.0029
     32 C         138.4883  141.1746  158.0482 C.3     1  UNL1        0.0174
     33 C         138.9980  140.0689  157.1721 C.3     1  UNL1        0.0721
@<TRIPOS>BOND
     1     1     2    2
     2     2    10    1
     3    10    11   ar
     4    11    12   ar
     5    12    13   ar
     6    13    14    1
     7    13    15   ar
     8    15    16   ar
     9    16    17    1
    10     2     3   am
    11     3     4    1
    12     4     5    1
    13     5     6    1
    14     6    18    1
    15    18    19   ar
    16    19    20   ar
    17    20    21   ar
    18    21    24    1
    19    24    25    1
    20    25    26    1
    21    26    27    1
    22    27    28    1
    23    28    29    1
    24    29    30    1
    25    30    31    1
    26    31    32    1
    27    32    33    1
    28    21    22   ar
    29    22    23   ar
    30     6     7   am
    31     7     8    2
    32     7     9    1
    33    16    10   ar
    34     9     3    1
    35    23    18   ar
    36    33    28    1
@<TRIPOS>MOLECULE
*****
 33 36 0 0 0
SMALL
GASTEIGER

@<TRIPOS>ATOM
      1 O         144.9013  137.3050  155.5731 O.2     1  UNL1       -0.2698
      2 C         143.4884  136.9486  155.9287 C.2     1  UNL1        0.2516
      3 N         142.6726  137.8756  156.7802 N.am    1  UNL1       -0.2659
      4 C         141.2597  137.5192  157.1358 C.3     1  UNL1        0.1160
      5 C         140.4440  138.4463  157.9875 C.3     1  UNL1        0.1197
      6 N         141.0412  139.7297  158.4835 N.am    1  UNL1       -0.2555
      7 C         142.4542  140.0861  158.1279 C.2     1  UNL1        0.2497
      8 O         143.0515  141.3695  158.6239 O.2     1  UNL1       -0.2727
      9 C         143.2699  139.1591  157.2763 C.3     1  UNL1        0.1799
     10 C         142.8911  135.6651  155.4326 C.ar    1  UNL1        0.0811
     11 C         142.4009  135.5631  154.0187 C.ar    1  UNL1        0.0091
     12 C         141.8037  134.2797  153.5227 C.ar    1  UNL1        0.0299
     13 C         141.6966  133.0982  154.4407 C.ar    1  UNL1        0.1424
     14 F         141.0993  131.8147  153.9446 F       1  UNL1       -0.2041
     15 C         142.1868  133.2002  155.8546 C.ar    1  UNL1        0.0594
     16 C         142.7840  134.4836  156.3506 C.ar    1  UNL1        0.1467
     17 F         143.2742  134.5857  157.7646 F       1  UNL1       -0.2039
     18 C         140.2255  140.6567  159.3351 C.ar    1  UNL1        0.0541
     19 C         139.4521  141.7737  158.6993 C.ar    1  UNL1        0.0180
     20 C         138.6363  142.7007  159.5510 C.ar    1  UNL1        0.0382
     21 C         138.5941  142.5107  161.0383 C.ar    1  UNL1        0.1386
     22 C         139.3676  141.3938  161.6740 C.ar    1  UNL1        0.0382
     23 C         140.1833  140.4668  160.8224 C.ar    1  UNL1        0.0180
     24 O         137.7784  143.4377  161.8899 O.3     1  UNL1       -0.4754
     25 C         137.6050  143.1549  163.3527 C.3     1  UNL1        0.2068
     26 C         138.4907  143.8303  164.3574 C.3     1  UNL1        0.0646
     27 C         139.5609  144.7757  163.8981 C.3     1  UNL1        0.0759
     28 N         141.0041  144.4549  164.1513 N.3     1  UNL1       -0.2726
     29 C         141.3758  143.2049  164.8925 C.3     1  UNL1        0.0721
     30 C         142.8191  142.8842  165.1457 C.3     1  UNL1        0.0174
     31 C         143.8907  143.8134  164.6576 C.3     1  UNL1        0.0029
     32 C         143.5190  145.0634  163.9164 C.3     1  UNL1        0.0174
     33 C         142.0758  145.3842  163.6632 C.3     1  UNL1        0.0721
@<TRIPOS>BOND
     1     1     2    2
     2     2    10    1
     3    10    11   ar
     4    11    12   ar
     5    12    13   ar
     6    13    14    1
     7    13    15   ar
     8    15    16   ar
     9    16    17    1
    10     2     3   am
    11     3     4    1
    12     4     5    1
    13     5     6    1
    14     6    18    1
    15    18    19   ar
    16    19    20   ar
    17    20    21   ar
    18    21    24    1
    19    24    25    1
    20    25    26    1
    21    26    27    1
    22    27    28    1
    23    28    29    1
    24    29    30    1
    25    30    31    1
    26    31    32    1
    27    32    33    1
    28    21    22   ar
    29    22    23   ar
    30     6     7   am
    31     7     8    2
    32     7     9    1
    33    16    10   ar
    34     9     3    1
    35    23    18   ar
    36    33    28    1
