@<TRIPOS>MOLECULE
*****
 30 31 0 0 0
SMALL
GASTEIGER

@<TRIPOS>ATOM
      1 C         145.1041  141.6001  162.4836 C.3     1  UNL1        0.1697
      2 O         145.2238  142.6167  161.3871 O.3     1  UNL1       -0.3793
      3 H         144.6943  142.3342  160.6250 H       1  UNL1        0.2106
      4 C         144.2555  140.3792  162.2850 C.3     1  UNL1        0.1021
      5 N         144.5009  139.1526  163.1128 N.3     1  UNL1       -0.2951
      6 H         144.0805  138.3701  162.6115 H       1  UNL1        0.1233
      7 C         143.9941  139.0857  164.5230 C.3     1  UNL1        0.0734
      8 C         142.6053  138.5901  164.7982 C.3     1  UNL1        0.0434
      9 C         139.5780  140.6359  169.5575 C.3     1  UNL1        0.0307
     10 C         140.3349  140.1245  168.3677 C.ar    1  UNL1       -0.0258
     11 C         139.6157  139.8609  167.0780 C.ar    1  UNL1       -0.0049
     12 C         140.3726  139.3495  165.8882 C.ar    1  UNL1       -0.0046
     13 C         141.8485  139.1016  165.9880 C.ar    1  UNL1       -0.0211
     14 C         142.5677  139.3651  167.2777 C.ar    1  UNL1       -0.0088
     15 C         141.8108  139.8766  168.4675 C.ar    1  UNL1       -0.0261
     16 C         142.5300  140.1401  169.7573 C.3     1  UNL1        0.0307
     17 C         145.8330  141.8044  163.7785 C.3     1  UNL1        0.2358
     18 O         145.2730  142.7316  164.8162 O.3     1  UNL1       -0.4728
     19 C         143.9150  143.3392  164.6246 C.ar    1  UNL1        0.1388
     20 C         143.7781  144.6718  163.9496 C.ar    1  UNL1        0.0382
     21 C         142.4201  145.2793  163.7580 C.ar    1  UNL1        0.0190
     22 C         141.1991  144.5544  164.2414 C.ar    1  UNL1        0.0646
     23 C         141.3361  143.2219  164.9163 C.ar    1  UNL1        0.0190
     24 C         142.6940  142.6143  165.1079 C.ar    1  UNL1        0.0382
     25 N         139.8411  145.1621  164.0498 N.pl3   1  UNL1       -0.2187
     26 H         139.6776  146.0957  164.3160 H       1  UNL1        0.1734
     27 S         138.7324  144.3473  163.4525 S.O2    1  UNL1        0.0558
     28 C         137.6236  143.5325  162.8553 C.3     1  UNL1        0.1996
     29 O         139.4386  144.3562  162.1292 O.2     1  UNL1       -0.1544
     30 O         138.0261  144.3383  164.7758 O.2     1  UNL1       -0.1544
@<TRIPOS>BOND
     1     9    10    1
     2    10    11   ar
     3    11    12   ar
     4    12    13   ar
     5    13     8    1
     6     8     7    1
     7     7     5    1
     8     5     4    1
     9     4     1    1
    10     1     2    1
    11     1    17    1
    12    17    18    1
    13    18    19    1
    14    19    20   ar
    15    20    21   ar
    16    21    22   ar
    17    22    25    1
    18    25    27    1
    19    27    28    1
    20    27    29    2
    21    27    30    2
    22    22    23   ar
    23    23    24   ar
    24    13    14   ar
    25    14    15   ar
    26    15    16    1
    27    15    10   ar
    28    24    19   ar
    29     5     6    1
    30     2     3    1
    31    25    26    1
@<TRIPOS>MOLECULE
*****
 30 31 0 0 0
SMALL
GASTEIGER

@<TRIPOS>ATOM
      1 C         138.1557  143.2705  162.8867 C.3     1  UNL1        0.1697
      2 O         137.3886  144.5010  162.5025 O.3     1  UNL1       -0.3793
      3 H         136.4501  144.3759  162.7132 H       1  UNL1        0.2106
      4 C         137.4408  142.1008  163.4957 C.3     1  UNL1        0.1021
      5 N         137.1605  140.8803  162.6698 N.3     1  UNL1       -0.2951
      6 H         136.2281  140.5577  162.9283 H       1  UNL1        0.1233
      7 C         138.0700  139.6907  162.7570 C.3     1  UNL1        0.0734
      8 C         138.8270  139.4165  164.0226 C.3     1  UNL1        0.0434
      9 C         144.8257  139.5428  164.0175 C.3     1  UNL1        0.0307
     10 C         143.3260  139.5112  164.0188 C.ar    1  UNL1       -0.0258
     11 C         142.5635  140.0522  162.8458 C.ar    1  UNL1       -0.0049
     12 C         141.0638  140.0206  162.8471 C.ar    1  UNL1       -0.0046
     13 C         140.3267  139.4481  164.0213 C.ar    1  UNL1       -0.0211
     14 C         141.0892  138.9072  165.1943 C.ar    1  UNL1       -0.0088
     15 C         142.5889  138.9387  165.1930 C.ar    1  UNL1       -0.0261
     16 C         143.3514  138.3978  166.3661 C.3     1  UNL1        0.0307
     17 C         139.6374  143.2097  162.6619 C.3     1  UNL1        0.2358
     18 O         140.5643  143.9736  163.5604 O.3     1  UNL1       -0.4728
     19 C         141.1493  143.3109  164.7724 C.ar    1  UNL1        0.1388
     20 C         140.2486  142.8193  165.8665 C.ar    1  UNL1        0.0382
     21 C         140.8336  142.1567  167.0784 C.ar    1  UNL1        0.0190
     22 C         142.3192  141.9858  167.1962 C.ar    1  UNL1        0.0646
     23 C         143.2198  142.4775  166.1021 C.ar    1  UNL1        0.0190
     24 C         142.6348  143.1400  164.8902 C.ar    1  UNL1        0.0382
     25 N         142.9041  141.3232  168.4082 N.pl3   1  UNL1       -0.2187
     26 H         143.6351  140.6713  168.3083 H       1  UNL1        0.1734
     27 S         142.3753  141.6538  169.7724 S.O2    1  UNL1        0.0558
     28 C         141.8465  141.9844  171.1366 C.3     1  UNL1        0.1996
     29 O         141.7063  140.3129  169.8380 O.2     1  UNL1       -0.1544
     30 O         143.0443  142.9947  169.7068 O.2     1  UNL1       -0.1544
@<TRIPOS>BOND
     1     9    10    1
     2    10    11   ar
     3    11    12   ar
     4    12    13   ar
     5    13     8    1
     6     8     7    1
     7     7     5    1
     8     5     4    1
     9     4     1    1
    10     1     2    1
    11     1    17    1
    12    17    18    1
    13    18    19    1
    14    19    20   ar
    15    20    21   ar
    16    21    22   ar
    17    22    25    1
    18    25    27    1
    19    27    28    1
    20    27    29    2
    21    27    30    2
    22    22    23   ar
    23    23    24   ar
    24    13    14   ar
    25    14    15   ar
    26    15    16    1
    27    15    10   ar
    28    24    19   ar
    29     5     6    1
    30     2     3    1
    31    25    26    1
@<TRIPOS>MOLECULE
*****
 30 31 0 0 0
SMALL
GASTEIGER

@<TRIPOS>ATOM
      1 C         145.0213  141.5847  163.0490 C.3     1  UNL1        0.1697
      2 O         146.5054  141.8016  163.0266 O.3     1  UNL1       -0.3793
      3 H         146.9134  141.1818  162.4019 H       1  UNL1        0.2106
      4 C         144.4044  140.5295  162.1796 C.3     1  UNL1        0.1021
      5 N         144.5102  139.0837  162.5653 N.3     1  UNL1       -0.2951
      6 H         145.4758  138.8032  162.3941 H       1  UNL1        0.1233
      7 C         143.6377  138.0633  161.8965 C.3     1  UNL1        0.0734
      8 C         142.1993  138.3782  161.6104 C.3     1  UNL1        0.0434
      9 C         138.1808  138.3606  166.0658 C.3     1  UNL1        0.0307
     10 C         139.1854  138.3650  164.9520 C.ar    1  UNL1       -0.0258
     11 C         140.1647  137.2364  164.8208 C.ar    1  UNL1       -0.0049
     12 C         141.1693  137.2408  163.7069 C.ar    1  UNL1       -0.0046
     13 C         141.1947  138.3738  162.7242 C.ar    1  UNL1       -0.0211
     14 C         140.2154  139.5024  162.8554 C.ar    1  UNL1       -0.0088
     15 C         139.2108  139.4980  163.9693 C.ar    1  UNL1       -0.0261
     16 C         138.2314  140.6267  164.1005 C.3     1  UNL1        0.0307
     17 C         144.1542  142.4231  163.9407 C.3     1  UNL1        0.2358
     18 O         142.6747  142.1811  163.9912 O.3     1  UNL1       -0.4728
     19 C         142.0545  141.5798  165.2175 C.ar    1  UNL1        0.1388
     20 C         140.9545  142.3051  165.9342 C.ar    1  UNL1        0.0382
     21 C         140.3343  141.7038  167.1605 C.ar    1  UNL1        0.0190
     22 C         140.8143  140.3772  167.6701 C.ar    1  UNL1        0.0646
     23 C         141.9144  139.6519  166.9535 C.ar    1  UNL1        0.0190
     24 C         142.5345  140.2532  165.7272 C.ar    1  UNL1        0.0382
     25 N         140.1941  139.7759  168.8965 N.pl3   1  UNL1       -0.2187
     26 H         139.6244  138.9768  168.8187 H       1  UNL1        0.1734
     27 S         140.4419  140.3923  170.2414 S.O2    1  UNL1        0.0558
     28 C         140.6897  141.0086  171.5862 C.3     1  UNL1        0.1996
     29 O         141.8553  139.8908  170.2108 O.2     1  UNL1       -0.1544
     30 O         139.0286  140.8937  170.2720 O.2     1  UNL1       -0.1544
@<TRIPOS>BOND
     1     9    10    1
     2    10    11   ar
     3    11    12   ar
     4    12    13   ar
     5    13     8    1
     6     8     7    1
     7     7     5    1
     8     5     4    1
     9     4     1    1
    10     1     2    1
    11     1    17    1
    12    17    18    1
    13    18    19    1
    14    19    20   ar
    15    20    21   ar
    16    21    22   ar
    17    22    25    1
    18    25    27    1
    19    27    28    1
    20    27    29    2
    21    27    30    2
    22    22    23   ar
    23    23    24   ar
    24    13    14   ar
    25    14    15   ar
    26    15    16    1
    27    15    10   ar
    28    24    19   ar
    29     5     6    1
    30     2     3    1
    31    25    26    1
@<TRIPOS>MOLECULE
*****
 30 31 0 0 0
SMALL
GASTEIGER

@<TRIPOS>ATOM
      1 C         140.5695  145.2745  162.4354 C.3     1  UNL1        0.1697
      2 O         140.3859  146.2825  161.3397 O.3     1  UNL1       -0.3793
      3 H         141.1262  146.9092  161.3496 H       1  UNL1        0.2106
      4 C         141.7690  145.3521  163.3326 C.3     1  UNL1        0.1021
      5 N         143.1468  145.2092  162.7568 N.3     1  UNL1       -0.2951
      6 H         143.0529  145.2919  161.7445 H       1  UNL1        0.1233
      7 C         143.9433  143.9652  163.0176 C.3     1  UNL1        0.0734
      8 C         143.7658  143.2173  164.3056 C.3     1  UNL1        0.0434
      9 C         141.4634  137.6768  164.2645 C.3     1  UNL1        0.0307
     10 C         142.0390  139.0619  164.2748 C.ar    1  UNL1       -0.0258
     11 C         141.6221  140.0551  163.2310 C.ar    1  UNL1       -0.0049
     12 C         142.1977  141.4402  163.2412 C.ar    1  UNL1       -0.0046
     13 C         143.1902  141.8321  164.2953 C.ar    1  UNL1       -0.0211
     14 C         143.6072  140.8389  165.3392 C.ar    1  UNL1       -0.0088
     15 C         143.0316  139.4538  165.3289 C.ar    1  UNL1       -0.0261
     16 C         143.4486  138.4606  166.3728 C.3     1  UNL1        0.0307
     17 C         139.5535  144.1889  162.6337 C.3     1  UNL1        0.2358
     18 O         138.8298  144.0689  163.9421 O.3     1  UNL1       -0.4728
     19 C         139.2140  142.9945  164.9159 C.ar    1  UNL1        0.1388
     20 C         138.6133  141.6252  164.7974 C.ar    1  UNL1        0.0382
     21 C         138.9974  140.5509  165.7712 C.ar    1  UNL1        0.0190
     22 C         139.9824  140.8459  166.8634 C.ar    1  UNL1        0.0646
     23 C         140.5831  142.2152  166.9818 C.ar    1  UNL1        0.0190
     24 C         140.1989  143.2895  166.0081 C.ar    1  UNL1        0.0382
     25 N         140.3665  139.7715  167.8371 N.pl3   1  UNL1       -0.2187
     26 H         140.5819  138.8673  167.5128 H       1  UNL1        0.1734
     27 S         140.4225  140.0748  169.3051 S.O2    1  UNL1        0.0558
     28 C         140.4785  140.3782  170.7730 C.3     1  UNL1        0.1996
     29 O         141.9203  140.1214  169.2383 O.2     1  UNL1       -0.1544
     30 O         138.9248  140.0282  169.3718 O.2     1  UNL1       -0.1544
@<TRIPOS>BOND
     1     9    10    1
     2    10    11   ar
     3    11    12   ar
     4    12    13   ar
     5    13     8    1
     6     8     7    1
     7     7     5    1
     8     5     4    1
     9     4     1    1
    10     1     2    1
    11     1    17    1
    12    17    18    1
    13    18    19    1
    14    19    20   ar
    15    20    21   ar
    16    21    22   ar
    17    22    25    1
    18    25    27    1
    19    27    28    1
    20    27    29    2
    21    27    30    2
    22    22    23   ar
    23    23    24   ar
    24    13    14   ar
    25    14    15   ar
    26    15    16    1
    27    15    10   ar
    28    24    19   ar
    29     5     6    1
    30     2     3    1
    31    25    26    1
@<TRIPOS>MOLECULE
*****
 30 31 0 0 0
SMALL
GASTEIGER

@<TRIPOS>ATOM
      1 C         142.8835  144.2253  162.4193 C.3     1  UNL1        0.1697
      2 O         142.6079  144.7450  161.0394 O.3     1  UNL1       -0.3793
      3 H         142.2196  145.6318  161.0994 H       1  UNL1        0.2106
      4 C         142.5540  145.0662  163.6170 C.3     1  UNL1        0.1021
      5 N         141.1714  145.6235  163.7847 N.3     1  UNL1       -0.2951
      6 H         141.2092  146.2735  164.5699 H       1  UNL1        0.1233
      7 C         140.0170  144.7009  164.0416 C.3     1  UNL1        0.0734
      8 C         140.0649  143.7425  165.1945 C.3     1  UNL1        0.0434
      9 C         139.2858  137.8691  164.2478 C.3     1  UNL1        0.0307
     10 C         139.4806  139.3375  164.4845 C.ar    1  UNL1       -0.0258
     11 C         140.0280  140.2071  163.3918 C.ar    1  UNL1       -0.0049
     12 C         140.2228  141.6755  163.6285 C.ar    1  UNL1       -0.0046
     13 C         139.8701  142.2742  164.9578 C.ar    1  UNL1       -0.0211
     14 C         139.3227  141.4045  166.0505 C.ar    1  UNL1       -0.0088
     15 C         139.1279  139.9361  165.8138 C.ar    1  UNL1       -0.0261
     16 C         138.5805  139.0665  166.9066 C.3     1  UNL1        0.0307
     17 C         143.4884  142.8649  162.6016 C.3     1  UNL1        0.2358
     18 O         144.3287  142.5734  163.8095 O.3     1  UNL1       -0.4728
     19 C         143.7385  141.8324  164.9726 C.ar    1  UNL1        0.1388
     20 C         143.4948  140.3556  164.8753 C.ar    1  UNL1        0.0382
     21 C         142.9046  139.6147  166.0383 C.ar    1  UNL1        0.0190
     22 C         142.5582  140.3506  167.2986 C.ar    1  UNL1        0.0646
     23 C         142.8019  141.8274  167.3959 C.ar    1  UNL1        0.0190
     24 C         143.3921  142.5683  166.2329 C.ar    1  UNL1        0.0382
     25 N         141.9680  139.6096  168.4617 N.pl3   1  UNL1       -0.2187
     26 H         141.6596  138.6815  168.3488 H       1  UNL1        0.1734
     27 S         141.8479  140.2826  169.7968 S.O2    1  UNL1        0.0558
     28 C         141.7277  140.9556  171.1319 C.3     1  UNL1        0.1996
     29 O         140.4385  140.6787  169.4703 O.2     1  UNL1       -0.1544
     30 O         143.2573  139.8865  170.1233 O.2     1  UNL1       -0.1544
@<TRIPOS>BOND
     1     9    10    1
     2    10    11   ar
     3    11    12   ar
     4    12    13   ar
     5    13     8    1
     6     8     7    1
     7     7     5    1
     8     5     4    1
     9     4     1    1
    10     1     2    1
    11     1    17    1
    12    17    18    1
    13    18    19    1
    14    19    20   ar
    15    20    21   ar
    16    21    22   ar
    17    22    25    1
    18    25    27    1
    19    27    28    1
    20    27    29    2
    21    27    30    2
    22    22    23   ar
    23    23    24   ar
    24    13    14   ar
    25    14    15   ar
    26    15    16    1
    27    15    10   ar
    28    24    19   ar
    29     5     6    1
    30     2     3    1
    31    25    26    1
@<TRIPOS>MOLECULE
*****
 30 31 0 0 0
SMALL
GASTEIGER

@<TRIPOS>ATOM
      1 C         140.4384  145.0581  162.2304 C.3     1  UNL1        0.1697
      2 O         140.3902  146.5417  162.4464 O.3     1  UNL1       -0.3793
      3 H         139.5354  146.8851  162.1426 H       1  UNL1        0.2106
      4 C         139.2631  144.3498  161.6247 C.3     1  UNL1        0.1021
      5 N         137.9393  144.3548  162.3302 N.3     1  UNL1       -0.2951
      6 H         137.7963  145.3017  162.6814 H       1  UNL1        0.1233
      7 C         137.7001  143.4249  163.4825 C.3     1  UNL1        0.0734
      8 C         137.4146  141.9743  163.2289 C.3     1  UNL1        0.0434
      9 C         141.5138  137.8213  164.6255 C.3     1  UNL1        0.0307
     10 C         140.4890  138.8596  164.2763 C.ar    1  UNL1       -0.0258
     11 C         139.1487  138.8467  164.9497 C.ar    1  UNL1       -0.0049
     12 C         138.1239  139.8849  164.6006 C.ar    1  UNL1       -0.0046
     13 C         138.4394  140.9361  163.5781 C.ar    1  UNL1       -0.0211
     14 C         139.7797  140.9489  162.9047 C.ar    1  UNL1       -0.0088
     15 C         140.8045  139.9107  163.2538 C.ar    1  UNL1       -0.0261
     16 C         142.1448  139.9237  162.5804 C.3     1  UNL1        0.0307
     17 C         141.6619  144.2828  162.6202 C.3     1  UNL1        0.2358
     18 O         142.1932  144.3740  164.0200 O.3     1  UNL1       -0.4728
     19 C         141.8855  143.2907  165.0109 C.ar    1  UNL1        0.1388
     20 C         140.5446  143.2466  165.6817 C.ar    1  UNL1        0.0382
     21 C         140.2370  142.1634  166.6726 C.ar    1  UNL1        0.0190
     22 C         141.2703  141.1243  166.9928 C.ar    1  UNL1        0.0646
     23 C         142.6112  141.1683  166.3220 C.ar    1  UNL1        0.0190
     24 C         142.9188  142.2516  165.3311 C.ar    1  UNL1        0.0382
     25 N         140.9627  140.0410  167.9838 N.pl3   1  UNL1       -0.2187
     26 H         141.4272  139.1749  167.9264 H       1  UNL1        0.1734
     27 S         139.9472  140.2774  169.0621 S.O2    1  UNL1        0.0558
     28 C         138.9318  140.5137  170.1405 C.3     1  UNL1        0.1996
     29 O         140.9545  141.0755  169.8357 O.2     1  UNL1       -0.1544
     30 O         138.9400  139.4792  168.2886 O.2     1  UNL1       -0.1544
@<TRIPOS>BOND
     1     9    10    1
     2    10    11   ar
     3    11    12   ar
     4    12    13   ar
     5    13     8    1
     6     8     7    1
     7     7     5    1
     8     5     4    1
     9     4     1    1
    10     1     2    1
    11     1    17    1
    12    17    18    1
    13    18    19    1
    14    19    20   ar
    15    20    21   ar
    16    21    22   ar
    17    22    25    1
    18    25    27    1
    19    27    28    1
    20    27    29    2
    21    27    30    2
    22    22    23   ar
    23    23    24   ar
    24    13    14   ar
    25    14    15   ar
    26    15    16    1
    27    15    10   ar
    28    24    19   ar
    29     5     6    1
    30     2     3    1
    31    25    26    1
@<TRIPOS>MOLECULE
*****
 30 31 0 0 0
SMALL
GASTEIGER

@<TRIPOS>ATOM
      1 C         137.7109  140.6172  161.5159 C.3     1  UNL1        0.1697
      2 O         138.2270  141.6972  160.6117 O.3     1  UNL1       -0.3793
      3 H         138.3077  141.3519  159.7089 H       1  UNL1        0.2106
      4 C         137.4095  139.2561  160.9623 C.3     1  UNL1        0.1021
      5 N         138.0422  138.0409  161.5732 N.3     1  UNL1       -0.2951
      6 H         137.7344  138.0057  162.5450 H       1  UNL1        0.1233
      7 C         139.5355  137.8994  161.5865 C.3     1  UNL1        0.0734
      8 C         140.2440  137.5457  162.8604 C.3     1  UNL1        0.0434
      9 C         143.6925  141.6166  165.6054 C.3     1  UNL1        0.0307
     10 C         142.8304  140.5989  164.9191 C.ar    1  UNL1       -0.0258
     11 C         142.3073  140.8671  163.5392 C.ar    1  UNL1       -0.0049
     12 C         141.4451  139.8494  162.8529 C.ar    1  UNL1       -0.0046
     13 C         141.1061  138.5634  163.5466 C.ar    1  UNL1       -0.0211
     14 C         141.6292  138.2952  164.9266 C.ar    1  UNL1       -0.0088
     15 C         142.4914  139.3129  165.6128 C.ar    1  UNL1       -0.0261
     16 C         143.0145  139.0446  166.9929 C.3     1  UNL1        0.0307
     17 C         137.4963  140.8984  162.9735 C.3     1  UNL1        0.2358
     18 O         138.5488  141.6212  163.7608 O.3     1  UNL1       -0.4728
     19 C         138.9016  141.1581  165.1433 C.ar    1  UNL1        0.1388
     20 C         139.7819  142.0032  166.0155 C.ar    1  UNL1        0.0382
     21 C         140.1347  141.5401  167.3979 C.ar    1  UNL1        0.0190
     22 C         139.6073  140.2318  167.9080 C.ar    1  UNL1        0.0646
     23 C         138.7270  139.3867  167.0358 C.ar    1  UNL1        0.0190
     24 C         138.3742  139.8499  165.6534 C.ar    1  UNL1        0.0382
     25 N         139.9601  139.7687  169.2905 N.pl3   1  UNL1       -0.2187
     26 H         139.8783  138.8164  169.5265 H       1  UNL1        0.1734
     27 S         140.4376  140.7565  170.3133 S.O2    1  UNL1        0.0558
     28 C         140.9151  141.7443  171.3361 C.3     1  UNL1        0.1996
     29 O         141.8429  140.2643  170.1326 O.2     1  UNL1       -0.1544
     30 O         139.0323  141.2487  170.4940 O.2     1  UNL1       -0.1544
@<TRIPOS>BOND
     1     9    10    1
     2    10    11   ar
     3    11    12   ar
     4    12    13   ar
     5    13     8    1
     6     8     7    1
     7     7     5    1
     8     5     4    1
     9     4     1    1
    10     1     2    1
    11     1    17    1
    12    17    18    1
    13    18    19    1
    14    19    20   ar
    15    20    21   ar
    16    21    22   ar
    17    22    25    1
    18    25    27    1
    19    27    28    1
    20    27    29    2
    21    27    30    2
    22    22    23   ar
    23    23    24   ar
    24    13    14   ar
    25    14    15   ar
    26    15    16    1
    27    15    10   ar
    28    24    19   ar
    29     5     6    1
    30     2     3    1
    31    25    26    1
@<TRIPOS>MOLECULE
*****
 30 31 0 0 0
SMALL
GASTEIGER

@<TRIPOS>ATOM
      1 C         139.4469  145.2908  162.4884 C.3     1  UNL1        0.1697
      2 O         139.3647  146.4407  161.5286 O.3     1  UNL1       -0.3793
      3 H         138.4578  146.5175  161.1930 H       1  UNL1        0.2106
      4 C         138.2250  144.4729  162.7853 C.3     1  UNL1        0.1021
      5 N         138.1953  143.0146  162.4351 N.3     1  UNL1       -0.2951
      6 H         137.8678  142.9498  161.4713 H       1  UNL1        0.1233
      7 C         137.3581  142.0666  163.2416 C.3     1  UNL1        0.0734
      8 C         137.6832  140.6023  163.2528 C.3     1  UNL1        0.0434
      9 C         142.6541  138.6538  165.9903 C.3     1  UNL1        0.0307
     10 C         141.4114  139.1409  165.3059 C.ar    1  UNL1       -0.0258
     11 C         140.1174  139.2109  166.0614 C.ar    1  UNL1       -0.0049
     12 C         138.8747  139.6980  165.3770 C.ar    1  UNL1       -0.0046
     13 C         138.9259  140.1152  163.9371 C.ar    1  UNL1       -0.0211
     14 C         140.2198  140.0452  163.1816 C.ar    1  UNL1       -0.0088
     15 C         141.4626  139.5581  163.8660 C.ar    1  UNL1       -0.0261
     16 C         142.7565  139.4881  163.1104 C.3     1  UNL1        0.0307
     17 C         140.7509  144.9588  163.1511 C.3     1  UNL1        0.2358
     18 O         141.0815  143.5341  163.4845 O.3     1  UNL1       -0.4728
     19 C         141.2552  143.1198  164.9157 C.ar    1  UNL1        0.1388
     20 C         142.5978  142.6668  165.4077 C.ar    1  UNL1        0.0382
     21 C         142.7715  142.2524  166.8388 C.ar    1  UNL1        0.0190
     22 C         141.6025  142.2910  167.7779 C.ar    1  UNL1        0.0646
     23 C         140.2598  142.7440  167.2859 C.ar    1  UNL1        0.0190
     24 C         140.0862  143.1584  165.8548 C.ar    1  UNL1        0.0382
     25 N         141.7762  141.8767  169.2091 N.pl3   1  UNL1       -0.2187
     26 H         141.6739  142.5399  169.9295 H       1  UNL1        0.1734
     27 S         142.1056  140.4518  169.5427 S.O2    1  UNL1        0.0558
     28 C         142.4351  139.0270  169.8762 C.3     1  UNL1        0.1996
     29 O         140.6906  140.0545  169.2430 O.2     1  UNL1       -0.1544
     30 O         143.5206  140.8492  169.8423 O.2     1  UNL1       -0.1544
@<TRIPOS>BOND
     1     9    10    1
     2    10    11   ar
     3    11    12   ar
     4    12    13   ar
     5    13     8    1
     6     8     7    1
     7     7     5    1
     8     5     4    1
     9     4     1    1
    10     1     2    1
    11     1    17    1
    12    17    18    1
    13    18    19    1
    14    19    20   ar
    15    20    21   ar
    16    21    22   ar
    17    22    25    1
    18    25    27    1
    19    27    28    1
    20    27    29    2
    21    27    30    2
    22    22    23   ar
    23    23    24   ar
    24    13    14   ar
    25    14    15   ar
    26    15    16    1
    27    15    10   ar
    28    24    19   ar
    29     5     6    1
    30     2     3    1
    31    25    26    1
@<TRIPOS>MOLECULE
*****
 30 31 0 0 0
SMALL
GASTEIGER

@<TRIPOS>ATOM
      1 C         143.6848  138.7541  162.9849 C.3     1  UNL1        0.1697
      2 O         144.4601  138.4009  161.7503 O.3     1  UNL1       -0.3793
      3 H         143.9557  137.7612  161.2237 H       1  UNL1        0.2106
      4 C         142.3432  138.1302  163.2321 C.3     1  UNL1        0.1021
      5 N         141.6747  138.2929  164.5651 N.3     1  UNL1       -0.2951
      6 H         142.1901  137.7115  165.2259 H       1  UNL1        0.1233
      7 C         140.2238  137.9465  164.7236 C.3     1  UNL1        0.0734
      8 C         139.3460  138.7808  165.6086 C.3     1  UNL1        0.0434
      9 C         139.2318  144.7444  164.9583 C.3     1  UNL1        0.0307
     10 C         139.2604  143.2535  165.1209 C.ar    1  UNL1       -0.0258
     11 C         140.1257  142.6305  166.1759 C.ar    1  UNL1       -0.0049
     12 C         140.1542  141.1396  166.3385 C.ar    1  UNL1       -0.0046
     13 C         139.3175  140.2717  165.4460 C.ar    1  UNL1       -0.0211
     14 C         138.4522  140.8947  164.3910 C.ar    1  UNL1       -0.0088
     15 C         138.4236  142.3856  164.2285 C.ar    1  UNL1       -0.0261
     16 C         137.5583  143.0085  163.1734 C.3     1  UNL1        0.0307
     17 C         144.2510  139.7312  163.9721 C.3     1  UNL1        0.2358
     18 O         143.3631  140.7668  164.5959 O.3     1  UNL1       -0.4728
     19 C         142.9032  141.9448  163.7890 C.ar    1  UNL1        0.1388
     20 C         141.7766  141.7900  162.8109 C.ar    1  UNL1        0.0382
     21 C         141.3168  142.9679  162.0040 C.ar    1  UNL1        0.0190
     22 C         141.9835  144.3006  162.1753 C.ar    1  UNL1        0.0646
     23 C         143.1102  144.4554  163.1534 C.ar    1  UNL1        0.0190
     24 C         143.5700  143.2775  163.9602 C.ar    1  UNL1        0.0382
     25 N         141.5237  145.4786  161.3684 N.pl3   1  UNL1       -0.2187
     26 H         141.6252  146.3901  161.7262 H       1  UNL1        0.1734
     27 S         140.9091  145.2676  160.0165 S.O2    1  UNL1        0.0558
     28 C         140.2946  145.0567  158.6645 C.3     1  UNL1        0.1996
     29 O         142.2338  144.8046  159.4866 O.2     1  UNL1       -0.1544
     30 O         139.5845  145.7307  160.5463 O.2     1  UNL1       -0.1544
@<TRIPOS>BOND
     1     9    10    1
     2    10    11   ar
     3    11    12   ar
     4    12    13   ar
     5    13     8    1
     6     8     7    1
     7     7     5    1
     8     5     4    1
     9     4     1    1
    10     1     2    1
    11     1    17    1
    12    17    18    1
    13    18    19    1
    14    19    20   ar
    15    20    21   ar
    16    21    22   ar
    17    22    25    1
    18    25    27    1
    19    27    28    1
    20    27    29    2
    21    27    30    2
    22    22    23   ar
    23    23    24   ar
    24    13    14   ar
    25    14    15   ar
    26    15    16    1
    27    15    10   ar
    28    24    19   ar
    29     5     6    1
    30     2     3    1
    31    25    26    1
