@<TRIPOS>MOLECULE
*****
 28 30 0 0 0
SMALL
GASTEIGER

@<TRIPOS>ATOM
      1 C         143.5164  142.4556  166.1476 C.3     1  UNL1        0.1467
      2 C         141.5614  137.6251  163.7630 C.3     1  UNL1        0.0896
      3 N         141.8989  138.8463  164.5659 N.3     1  UNL1       -0.2715
      4 C         141.1466  139.1453  165.8287 C.3     1  UNL1        0.0725
      5 C         141.4842  140.3665  166.6316 C.3     1  UNL1        0.0238
      6 C         142.5741  141.2887  166.1718 C.3     1  UNL1        0.0489
      7 C         143.3265  140.9898  164.9091 C.3     1  UNL1        0.0238
      8 C         142.9889  139.7686  164.1062 C.3     1  UNL1        0.0725
      9 C         142.1490  141.9929  167.4262 C.ar    1  UNL1       -0.0204
     10 C         143.1144  142.1471  168.5637 C.ar    1  UNL1       -0.0042
     11 C         142.6894  142.8513  169.8181 C.ar    1  UNL1       -0.0003
     12 C         141.2988  143.4013  169.9348 C.ar    1  UNL1       -0.0000
     13 C         140.3332  143.2471  168.7973 C.ar    1  UNL1       -0.0003
     14 C         140.7583  142.5429  167.5430 C.ar    1  UNL1       -0.0042
     15 O         144.0593  142.9542  164.8412 O.3     1  UNL1       -0.3470
     16 C         143.6771  144.3158  164.3410 C.3     1  UNL1        0.1875
     17 C         142.3818  144.5099  163.6100 C.ar    1  UNL1        0.0895
     18 C         141.0813  144.4243  164.3528 C.ar    1  UNL1        0.0212
     19 C         139.7860  144.6184  163.6217 C.ar    1  UNL1        0.0749
     20 C         139.7910  144.8981  162.1481 C.ar    1  UNL1        0.0335
     21 C         141.0915  144.9837  161.4053 C.ar    1  UNL1        0.1488
     22 N         142.3868  144.7896  162.1363 N.ar    1  UNL1       -0.2369
     23 C         138.4855  144.5328  164.3644 C.3     1  UNL1        0.4187
     24 F         137.1851  144.4472  165.1070 F       1  UNL1       -0.1659
     25 F         137.7770  144.1991  163.0851 F       1  UNL1       -0.1659
     26 F         139.1941  144.8665  165.6437 F       1  UNL1       -0.1659
     27 C         141.0965  145.2633  159.9317 C.1     1  UNL1        0.1197
     28 N         141.1016  145.5430  158.4580 N.1     1  UNL1       -0.1893
@<TRIPOS>BOND
     1     2     3    1
     2     3     4    1
     3     4     5    1
     4     5     6    1
     5     6     1    1
     6     1    15    1
     7    15    16    1
     8    16    17    1
     9    17    18   ar
    10    18    19   ar
    11    19    23    1
    12    23    24    1
    13    23    25    1
    14    23    26    1
    15    19    20   ar
    16    20    21   ar
    17    21    27    1
    18    27    28    3
    19    21    22   ar
    20     6     9    1
    21     9    10   ar
    22    10    11   ar
    23    11    12   ar
    24    12    13   ar
    25    13    14   ar
    26     6     7    1
    27     7     8    1
    28     8     3    1
    29    22    17   ar
    30    14     9   ar
@<TRIPOS>MOLECULE
*****
 28 30 0 0 0
SMALL
GASTEIGER

@<TRIPOS>ATOM
      1 C         139.6881  143.4516  166.1570 C.3     1  UNL1        0.1467
      2 C         144.7279  142.6909  163.5372 C.3     1  UNL1        0.0896
      3 N         143.4986  142.7283  164.3959 N.3     1  UNL1       -0.2715
      4 C         143.4364  141.9117  165.6526 C.3     1  UNL1        0.0725
      5 C         142.2071  141.9491  166.5113 C.3     1  UNL1        0.0238
      6 C         141.0399  142.8030  166.1133 C.3     1  UNL1        0.0489
      7 C         141.1021  143.6196  164.8566 C.3     1  UNL1        0.0238
      8 C         142.3314  143.5822  163.9979 C.3     1  UNL1        0.0725
      9 C         140.5083  142.2117  167.3852 C.ar    1  UNL1       -0.0204
     10 C         140.4770  143.0343  168.6391 C.ar    1  UNL1       -0.0042
     11 C         139.9454  142.4430  169.9110 C.ar    1  UNL1       -0.0003
     12 C         139.4450  141.0291  169.9289 C.ar    1  UNL1       -0.0000
     13 C         139.4762  140.2064  168.6750 C.ar    1  UNL1       -0.0003
     14 C         140.0079  140.7977  167.4031 C.ar    1  UNL1       -0.0042
     15 O         139.0153  143.8697  164.8831 O.3     1  UNL1       -0.3470
     16 C         137.7953  143.1397  164.4047 C.3     1  UNL1        0.1875
     17 C         137.9346  141.8045  163.7355 C.ar    1  UNL1        0.0895
     18 C         138.2099  140.5794  164.5561 C.ar    1  UNL1        0.0212
     19 C         138.3491  139.2442  163.8869 C.ar    1  UNL1        0.0749
     20 C         138.2130  139.1341  162.3971 C.ar    1  UNL1        0.0335
     21 C         137.9377  140.3592  161.5766 C.ar    1  UNL1        0.1488
     22 N         137.7985  141.6944  162.2458 N.ar    1  UNL1       -0.2369
     23 C         138.6244  138.0190  164.7074 C.3     1  UNL1        0.4187
     24 F         138.8998  136.7938  165.5278 F       1  UNL1       -0.1659
     25 F         139.2882  137.3767  163.5254 F       1  UNL1       -0.1659
     26 F         137.9607  138.6613  165.8892 F       1  UNL1       -0.1659
     27 C         137.8016  140.2491  160.0868 C.1     1  UNL1        0.1197
     28 N         137.6654  140.1390  158.5971 N.1     1  UNL1       -0.1893
@<TRIPOS>BOND
     1     2     3    1
     2     3     4    1
     3     4     5    1
     4     5     6    1
     5     6     1    1
     6     1    15    1
     7    15    16    1
     8    16    17    1
     9    17    18   ar
    10    18    19   ar
    11    19    23    1
    12    23    24    1
    13    23    25    1
    14    23    26    1
    15    19    20   ar
    16    20    21   ar
    17    21    27    1
    18    27    28    3
    19    21    22   ar
    20     6     9    1
    21     9    10   ar
    22    10    11   ar
    23    11    12   ar
    24    12    13   ar
    25    13    14   ar
    26     6     7    1
    27     7     8    1
    28     8     3    1
    29    22    17   ar
    30    14     9   ar
@<TRIPOS>MOLECULE
*****
 28 30 0 0 0
SMALL
GASTEIGER

@<TRIPOS>ATOM
      1 C         140.3138  137.7163  162.8082 C.3     1  UNL1        0.1467
      2 C         138.0577  140.4609  158.3116 C.3     1  UNL1        0.0896
      3 N         138.4668  139.8576  159.6226 N.3     1  UNL1       -0.2715
      4 C         137.7074  140.1929  160.8720 C.3     1  UNL1        0.0725
      5 C         138.1165  139.5897  162.1830 C.3     1  UNL1        0.0238
      6 C         139.2850  138.6511  162.2447 C.3     1  UNL1        0.0489
      7 C         140.0443  138.3159  160.9953 C.3     1  UNL1        0.0238
      8 C         139.6352  138.9191  159.6843 C.3     1  UNL1        0.0725
      9 C         138.8829  138.6618  163.6898 C.ar    1  UNL1       -0.0204
     10 C         138.8768  137.3844  164.4760 C.ar    1  UNL1       -0.0042
     11 C         138.4747  137.3949  165.9210 C.ar    1  UNL1       -0.0003
     12 C         138.0788  138.6830  166.5799 C.ar    1  UNL1       -0.0000
     13 C         138.0849  139.9605  165.7937 C.ar    1  UNL1       -0.0003
     14 C         138.4869  139.9498  164.3486 C.ar    1  UNL1       -0.0042
     15 O         141.7674  137.9310  162.5067 O.3     1  UNL1       -0.3470
     16 C         142.6984  138.3893  163.5900 C.3     1  UNL1        0.1875
     17 C         142.2577  139.4443  164.5609 C.ar    1  UNL1        0.0895
     18 C         142.0321  139.0910  166.0012 C.ar    1  UNL1        0.0212
     19 C         141.5914  140.1461  166.9720 C.ar    1  UNL1        0.0749
     20 C         141.3762  141.5544  166.5026 C.ar    1  UNL1        0.0335
     21 C         141.6018  141.9077  165.0623 C.ar    1  UNL1        0.1488
     22 N         142.0425  140.8527  164.0914 N.ar    1  UNL1       -0.2369
     23 C         141.3659  139.7929  168.4123 C.3     1  UNL1        0.4187
     24 F         141.1404  139.4397  169.8525 F       1  UNL1       -0.1659
     25 F         142.6276  138.9815  168.4108 F       1  UNL1       -0.1659
     26 F         140.1043  140.6043  168.4137 F       1  UNL1       -0.1659
     27 C         141.3866  143.3160  164.5930 C.1     1  UNL1        0.1197
     28 N         141.1713  144.7243  164.1236 N.1     1  UNL1       -0.1893
@<TRIPOS>BOND
     1     2     3    1
     2     3     4    1
     3     4     5    1
     4     5     6    1
     5     6     1    1
     6     1    15    1
     7    15    16    1
     8    16    17    1
     9    17    18   ar
    10    18    19   ar
    11    19    23    1
    12    23    24    1
    13    23    25    1
    14    23    26    1
    15    19    20   ar
    16    20    21   ar
    17    21    27    1
    18    27    28    3
    19    21    22   ar
    20     6     9    1
    21     9    10   ar
    22    10    11   ar
    23    11    12   ar
    24    12    13   ar
    25    13    14   ar
    26     6     7    1
    27     7     8    1
    28     8     3    1
    29    22    17   ar
    30    14     9   ar
@<TRIPOS>MOLECULE
*****
 28 30 0 0 0
SMALL
GASTEIGER

@<TRIPOS>ATOM
      1 C         141.8092  142.8201  165.9317 C.3     1  UNL1        0.1467
      2 C         140.4196  140.2890  170.8819 C.3     1  UNL1        0.0896
      3 N         140.9556  140.7670  169.5650 N.3     1  UNL1       -0.2715
      4 C         142.0710  140.0216  168.8941 C.3     1  UNL1        0.0725
      5 C         142.6070  140.4996  167.5772 C.3     1  UNL1        0.0238
      6 C         142.0276  141.7231  166.9313 C.3     1  UNL1        0.0489
      7 C         140.9122  142.4686  167.6022 C.3     1  UNL1        0.0238
      8 C         140.3762  141.9905  168.9191 C.3     1  UNL1        0.0725
      9 C         143.0672  141.3586  165.9132 C.ar    1  UNL1       -0.0204
     10 C         143.2217  139.9319  165.4767 C.ar    1  UNL1       -0.0042
     11 C         144.2612  139.5673  164.4586 C.ar    1  UNL1       -0.0003
     12 C         145.1462  140.6296  163.8771 C.ar    1  UNL1       -0.0000
     13 C         144.9918  142.0564  164.3135 C.ar    1  UNL1       -0.0003
     14 C         143.9522  142.4209  165.3316 C.ar    1  UNL1       -0.0042
     15 O         140.4148  143.2308  165.5616 O.3     1  UNL1       -0.3470
     16 C         139.7125  142.5569  164.4202 C.3     1  UNL1        0.1875
     17 C         139.6934  141.0598  164.3303 C.ar    1  UNL1        0.0895
     18 C         138.8866  140.2598  165.3097 C.ar    1  UNL1        0.0212
     19 C         138.8675  138.7626  165.2197 C.ar    1  UNL1        0.0749
     20 C         139.6552  138.0654  164.1504 C.ar    1  UNL1        0.0335
     21 C         140.4621  138.8654  163.1710 C.ar    1  UNL1        0.1488
     22 N         140.4812  140.3625  163.2610 N.ar    1  UNL1       -0.2369
     23 C         138.0607  137.9626  166.1990 C.3     1  UNL1        0.4187
     24 F         137.2539  137.1626  167.1783 F       1  UNL1       -0.1659
     25 F         138.6174  136.6949  165.6219 F       1  UNL1       -0.1659
     26 F         137.5041  139.2303  166.7760 F       1  UNL1       -0.1659
     27 C         141.2498  138.1681  162.1018 C.1     1  UNL1        0.1197
     28 N         142.0375  137.4708  161.0326 N.1     1  UNL1       -0.1893
@<TRIPOS>BOND
     1     2     3    1
     2     3     4    1
     3     4     5    1
     4     5     6    1
     5     6     1    1
     6     1    15    1
     7    15    16    1
     8    16    17    1
     9    17    18   ar
    10    18    19   ar
    11    19    23    1
    12    23    24    1
    13    23    25    1
    14    23    26    1
    15    19    20   ar
    16    20    21   ar
    17    21    27    1
    18    27    28    3
    19    21    22   ar
    20     6     9    1
    21     9    10   ar
    22    10    11   ar
    23    11    12   ar
    24    12    13   ar
    25    13    14   ar
    26     6     7    1
    27     7     8    1
    28     8     3    1
    29    22    17   ar
    30    14     9   ar
@<TRIPOS>MOLECULE
*****
 28 30 0 0 0
SMALL
GASTEIGER

@<TRIPOS>ATOM
      1 C         142.2200  142.6042  164.9788 C.3     1  UNL1        0.1467
      2 C         142.0816  142.0548  170.6815 C.3     1  UNL1        0.0896
      3 N         141.8773  142.2746  169.2118 N.3     1  UNL1       -0.2715
      4 C         140.5523  142.7600  168.7031 C.3     1  UNL1        0.0725
      5 C         140.3481  142.9799  167.2334 C.3     1  UNL1        0.0238
      6 C         141.4688  142.7144  166.2725 C.3     1  UNL1        0.0489
      7 C         142.7937  142.2290  166.7812 C.3     1  UNL1        0.0238
      8 C         142.9980  142.0092  168.2509 C.3     1  UNL1        0.0725
      9 C         140.4046  143.1615  165.3145 C.ar    1  UNL1       -0.0204
     10 C         140.6493  144.3388  164.4179 C.ar    1  UNL1       -0.0042
     11 C         139.5852  144.7860  163.4598 C.ar    1  UNL1       -0.0003
     12 C         138.2764  144.0556  163.3985 C.ar    1  UNL1       -0.0000
     13 C         138.0317  142.8783  164.2951 C.ar    1  UNL1       -0.0003
     14 C         139.0959  142.4312  165.2531 C.ar    1  UNL1       -0.0042
     15 O         143.0168  141.3697  164.6771 O.3     1  UNL1       -0.3470
     16 C         142.6277  140.4882  163.5274 C.3     1  UNL1        0.1875
     17 C         141.2148  140.0007  163.4009 C.ar    1  UNL1        0.0895
     18 C         140.5382  139.3502  164.5711 C.ar    1  UNL1        0.0212
     19 C         139.1254  138.8628  164.4445 C.ar    1  UNL1        0.0749
     20 C         138.3890  139.0256  163.1479 C.ar    1  UNL1        0.0335
     21 C         139.0656  139.6760  161.9777 C.ar    1  UNL1        0.1488
     22 N         140.4785  140.1635  162.1042 N.ar    1  UNL1       -0.2369
     23 C         138.4487  138.2123  165.6147 C.3     1  UNL1        0.4187
     24 F         137.7721  137.5619  166.7847 F       1  UNL1       -0.1659
     25 F         139.1872  136.9374  165.3330 F       1  UNL1       -0.1659
     26 F         137.7102  139.4872  165.8963 F       1  UNL1       -0.1659
     27 C         138.3293  139.8388  160.6811 C.1     1  UNL1        0.1197
     28 N         137.5931  140.0017  159.3844 N.1     1  UNL1       -0.1893
@<TRIPOS>BOND
     1     2     3    1
     2     3     4    1
     3     4     5    1
     4     5     6    1
     5     6     1    1
     6     1    15    1
     7    15    16    1
     8    16    17    1
     9    17    18   ar
    10    18    19   ar
    11    19    23    1
    12    23    24    1
    13    23    25    1
    14    23    26    1
    15    19    20   ar
    16    20    21   ar
    17    21    27    1
    18    27    28    3
    19    21    22   ar
    20     6     9    1
    21     9    10   ar
    22    10    11   ar
    23    11    12   ar
    24    12    13   ar
    25    13    14   ar
    26     6     7    1
    27     7     8    1
    28     8     3    1
    29    22    17   ar
    30    14     9   ar
@<TRIPOS>MOLECULE
*****
 28 30 0 0 0
SMALL
GASTEIGER

@<TRIPOS>ATOM
      1 C         138.1273  140.3091  163.7352 C.3     1  UNL1        0.1467
      2 C         142.3127  138.7284  160.1539 C.3     1  UNL1        0.0896
      3 N         141.3393  139.3639  161.1019 N.3     1  UNL1       -0.2715
      4 C         141.5521  140.7760  161.5606 C.3     1  UNL1        0.0725
      5 C         140.5786  141.4114  162.5086 C.3     1  UNL1        0.0238
      6 C         139.3923  140.6347  162.9977 C.3     1  UNL1        0.0489
      7 C         139.1795  139.2226  162.5389 C.3     1  UNL1        0.0238
      8 C         140.1529  138.5872  161.5910 C.3     1  UNL1        0.0725
      9 C         139.1658  141.9338  163.7126 C.ar    1  UNL1       -0.0204
     10 C         140.1861  142.4408  164.6883 C.ar    1  UNL1       -0.0042
     11 C         139.9597  143.7398  165.4032 C.ar    1  UNL1       -0.0003
     12 C         138.7129  144.5320  165.1424 C.ar    1  UNL1       -0.0000
     13 C         137.6925  144.0251  164.1667 C.ar    1  UNL1       -0.0003
     14 C         137.9190  142.7259  163.4518 C.ar    1  UNL1       -0.0042
     15 O         138.0636  139.0968  164.6162 O.3     1  UNL1       -0.3470
     16 C         138.0916  139.2514  166.1079 C.3     1  UNL1        0.1875
     17 C         139.3987  139.4479  166.8171 C.ar    1  UNL1        0.0895
     18 C         140.6893  139.2059  166.0919 C.ar    1  UNL1        0.0212
     19 C         141.9963  139.4023  166.8012 C.ar    1  UNL1        0.0749
     20 C         142.0128  139.8407  168.2355 C.ar    1  UNL1        0.0335
     21 C         140.7222  140.0827  168.9608 C.ar    1  UNL1        0.1488
     22 N         139.4152  139.8863  168.2516 N.ar    1  UNL1       -0.2369
     23 C         143.2869  139.1604  166.0760 C.3     1  UNL1        0.4187
     24 F         144.5775  138.9185  165.3508 F       1  UNL1       -0.1659
     25 F         142.8795  140.1469  165.0220 F       1  UNL1       -0.1659
     26 F         143.6942  138.1739  167.1300 F       1  UNL1       -0.1659
     27 C         140.7388  140.5211  170.3952 C.1     1  UNL1        0.1197
     28 N         140.7554  140.9596  171.8295 N.1     1  UNL1       -0.1893
@<TRIPOS>BOND
     1     2     3    1
     2     3     4    1
     3     4     5    1
     4     5     6    1
     5     6     1    1
     6     1    15    1
     7    15    16    1
     8    16    17    1
     9    17    18   ar
    10    18    19   ar
    11    19    23    1
    12    23    24    1
    13    23    25    1
    14    23    26    1
    15    19    20   ar
    16    20    21   ar
    17    21    27    1
    18    27    28    3
    19    21    22   ar
    20     6     9    1
    21     9    10   ar
    22    10    11   ar
    23    11    12   ar
    24    12    13   ar
    25    13    14   ar
    26     6     7    1
    27     7     8    1
    28     8     3    1
    29    22    17   ar
    30    14     9   ar
@<TRIPOS>MOLECULE
*****
 28 30 0 0 0
SMALL
GASTEIGER

@<TRIPOS>ATOM
      1 C         141.7662  137.8623  163.8537 C.3     1  UNL1        0.1467
      2 C         141.4579  138.5068  158.1676 C.3     1  UNL1        0.0896
      3 N         141.3061  138.4385  159.6583 N.3     1  UNL1       -0.2715
      4 C         140.0444  138.9258  160.3068 C.3     1  UNL1        0.0725
      5 C         139.8925  138.8574  161.7975 C.3     1  UNL1        0.0238
      6 C         141.0024  138.3018  162.6398 C.3     1  UNL1        0.0489
      7 C         142.2641  137.8145  161.9913 C.3     1  UNL1        0.0238
      8 C         142.4159  137.8828  160.5005 C.3     1  UNL1        0.0725
      9 C         140.0059  138.6365  163.7099 C.ar    1  UNL1       -0.0204
     10 C         139.6173  137.6011  164.7232 C.ar    1  UNL1       -0.0042
     11 C         138.6209  137.9358  165.7933 C.ar    1  UNL1       -0.0003
     12 C         138.0131  139.3059  165.8499 C.ar    1  UNL1       -0.0000
     13 C         138.4016  140.3414  164.8366 C.ar    1  UNL1       -0.0003
     14 C         139.3981  140.0067  163.7665 C.ar    1  UNL1       -0.0042
     15 O         143.1285  138.4272  164.1277 O.3     1  UNL1       -0.3470
     16 C         143.3925  139.1603  165.4095 C.3     1  UNL1        0.1875
     17 C         142.5067  140.2997  165.8179 C.ar    1  UNL1        0.0895
     18 C         141.6733  140.1937  167.0607 C.ar    1  UNL1        0.0212
     19 C         140.7875  141.3332  167.4690 C.ar    1  UNL1        0.0749
     20 C         140.7349  142.5787  166.6348 C.ar    1  UNL1        0.0335
     21 C         141.5683  142.6847  165.3920 C.ar    1  UNL1        0.1488
     22 N         142.4542  141.5452  164.9836 N.ar    1  UNL1       -0.2369
     23 C         139.9541  141.2273  168.7118 C.3     1  UNL1        0.4187
     24 F         139.1208  141.1214  169.9545 F       1  UNL1       -0.1659
     25 F         140.0730  142.7084  168.9176 F       1  UNL1       -0.1659
     26 F         139.8354  139.7462  168.5059 F       1  UNL1       -0.1659
     27 C         141.5157  143.9302  164.5578 C.1     1  UNL1        0.1197
     28 N         141.4633  145.1756  163.7236 N.1     1  UNL1       -0.1893
@<TRIPOS>BOND
     1     2     3    1
     2     3     4    1
     3     4     5    1
     4     5     6    1
     5     6     1    1
     6     1    15    1
     7    15    16    1
     8    16    17    1
     9    17    18   ar
    10    18    19   ar
    11    19    23    1
    12    23    24    1
    13    23    25    1
    14    23    26    1
    15    19    20   ar
    16    20    21   ar
    17    21    27    1
    18    27    28    3
    19    21    22   ar
    20     6     9    1
    21     9    10   ar
    22    10    11   ar
    23    11    12   ar
    24    12    13   ar
    25    13    14   ar
    26     6     7    1
    27     7     8    1
    28     8     3    1
    29    22    17   ar
    30    14     9   ar
@<TRIPOS>MOLECULE
*****
 28 30 0 0 0
SMALL
GASTEIGER

@<TRIPOS>ATOM
      1 C         142.6730  139.8146  165.8834 C.3     1  UNL1        0.1467
      2 C         141.4330  141.8931  171.0780 C.3     1  UNL1        0.0896
      3 N         141.5164  141.2718  169.7153 N.3     1  UNL1       -0.2715
      4 C         140.3106  140.6090  169.1182 C.3     1  UNL1        0.0725
      5 C         140.3939  139.9877  167.7554 C.3     1  UNL1        0.0238
      6 C         141.6831  140.0292  166.9898 C.3     1  UNL1        0.0489
      7 C         142.8890  140.6920  167.5870 C.3     1  UNL1        0.0238
      8 C         142.8056  141.3133  168.9497 C.3     1  UNL1        0.0725
      9 C         140.8210  139.2918  166.0084 C.ar    1  UNL1       -0.0204
     10 C         141.4087  138.1967  165.1686 C.ar    1  UNL1       -0.0042
     11 C         140.5467  137.4594  164.1872 C.ar    1  UNL1       -0.0003
     12 C         139.0969  137.8172  164.0457 C.ar    1  UNL1       -0.0000
     13 C         138.5091  138.9123  164.8855 C.ar    1  UNL1       -0.0003
     14 C         139.3712  139.6496  165.8669 C.ar    1  UNL1       -0.0042
     15 O         143.3752  140.9882  165.2672 O.3     1  UNL1       -0.3470
     16 C         142.9080  141.5353  163.9510 C.3     1  UNL1        0.1875
     17 C         141.4621  141.8827  163.7540 C.ar    1  UNL1        0.0895
     18 C         140.8257  142.9494  164.5950 C.ar    1  UNL1        0.0212
     19 C         139.3799  143.2968  164.3979 C.ar    1  UNL1        0.0749
     20 C         138.5704  142.5776  163.3599 C.ar    1  UNL1        0.0335
     21 C         139.2068  141.5109  162.5189 C.ar    1  UNL1        0.1488
     22 N         140.6527  141.1634  162.7160 N.ar    1  UNL1       -0.2369
     23 C         138.7434  144.3635  165.2389 C.3     1  UNL1        0.4187
     24 F         138.1071  145.4301  166.0799 F       1  UNL1       -0.1659
     25 F         139.6038  143.9613  166.4000 F       1  UNL1       -0.1659
     26 F         137.8832  144.7656  164.0778 F       1  UNL1       -0.1659
     27 C         138.3973  140.7917  161.4810 C.1     1  UNL1        0.1197
     28 N         137.5878  140.0726  160.4430 N.1     1  UNL1       -0.1893
@<TRIPOS>BOND
     1     2     3    1
     2     3     4    1
     3     4     5    1
     4     5     6    1
     5     6     1    1
     6     1    15    1
     7    15    16    1
     8    16    17    1
     9    17    18   ar
    10    18    19   ar
    11    19    23    1
    12    23    24    1
    13    23    25    1
    14    23    26    1
    15    19    20   ar
    16    20    21   ar
    17    21    27    1
    18    27    28    3
    19    21    22   ar
    20     6     9    1
    21     9    10   ar
    22    10    11   ar
    23    11    12   ar
    24    12    13   ar
    25    13    14   ar
    26     6     7    1
    27     7     8    1
    28     8     3    1
    29    22    17   ar
    30    14     9   ar
@<TRIPOS>MOLECULE
*****
 28 30 0 0 0
SMALL
GASTEIGER

@<TRIPOS>ATOM
      1 C         142.5962  139.8216  165.4275 C.3     1  UNL1        0.1467
      2 C         141.7057  141.3192  170.8870 C.3     1  UNL1        0.0896
      3 N         142.0530  141.1523  169.4373 N.3     1  UNL1       -0.2715
      4 C         142.7889  142.2399  168.7124 C.3     1  UNL1        0.0725
      5 C         143.1361  142.0731  167.2627 C.3     1  UNL1        0.0238
      6 C         142.7475  140.8186  166.5379 C.3     1  UNL1        0.0489
      7 C         142.0117  139.7310  167.2629 C.3     1  UNL1        0.0238
      8 C         141.6644  139.8979  168.7126 C.3     1  UNL1        0.0725
      9 C         143.4309  141.5600  165.4273 C.ar    1  UNL1       -0.0204
     10 C         143.1641  143.0223  165.2264 C.ar    1  UNL1       -0.0042
     11 C         143.8474  143.7637  164.1158 C.ar    1  UNL1       -0.0003
     12 C         144.7975  143.0427  163.2062 C.ar    1  UNL1       -0.0000
     13 C         145.0643  141.5804  163.4071 C.ar    1  UNL1       -0.0003
     14 C         144.3810  140.8390  164.5177 C.ar    1  UNL1       -0.0042
     15 O         141.2453  139.2525  165.1094 O.3     1  UNL1       -0.3470
     16 C         140.4967  139.7287  163.8999 C.3     1  UNL1        0.1875
     17 C         140.4105  141.1960  163.6009 C.ar    1  UNL1        0.0895
     18 C         139.6568  142.1066  164.5243 C.ar    1  UNL1        0.0212
     19 C         139.5707  143.5740  164.2252 C.ar    1  UNL1        0.0749
     20 C         140.2382  144.1307  163.0028 C.ar    1  UNL1        0.0335
     21 C         140.9919  143.2201  162.0793 C.ar    1  UNL1        0.1488
     22 N         141.0781  141.7527  162.3784 N.ar    1  UNL1       -0.2369
     23 C         138.8170  144.4847  165.1486 C.3     1  UNL1        0.4187
     24 F         138.0633  145.3954  166.0719 F       1  UNL1       -0.1659
     25 F         137.9264  144.8976  164.0144 F       1  UNL1       -0.1659
     26 F         139.7075  144.0717  166.2828 F       1  UNL1       -0.1659
     27 C         141.6594  143.7768  160.8568 C.1     1  UNL1        0.1197
     28 N         142.3270  144.3336  159.6345 N.1     1  UNL1       -0.1893
@<TRIPOS>BOND
     1     2     3    1
     2     3     4    1
     3     4     5    1
     4     5     6    1
     5     6     1    1
     6     1    15    1
     7    15    16    1
     8    16    17    1
     9    17    18   ar
    10    18    19   ar
    11    19    23    1
    12    23    24    1
    13    23    25    1
    14    23    26    1
    15    19    20   ar
    16    20    21   ar
    17    21    27    1
    18    27    28    3
    19    21    22   ar
    20     6     9    1
    21     9    10   ar
    22    10    11   ar
    23    11    12   ar
    24    12    13   ar
    25    13    14   ar
    26     6     7    1
    27     7     8    1
    28     8     3    1
    29    22    17   ar
    30    14     9   ar
