@<TRIPOS>MOLECULE
*****
 32 35 0 0 0
SMALL
GASTEIGER

@<TRIPOS>ATOM
      1 C         139.6387  144.3622  156.8329 C.2     1  UNL1        0.0099
      2 C         138.6486  143.3051  156.4429 C.2     1  UNL1       -0.0400
      3 C         138.5395  142.0453  157.2498 C.3     1  UNL1        0.0394
      4 C         137.5494  140.9882  156.8598 C.3     1  UNL1        0.0768
      5 N         136.6684  141.1908  155.6628 N.3     1  UNL1       -0.2671
      6 C         136.7775  142.4505  154.8559 C.3     1  UNL1        0.0768
      7 C         137.7676  143.5077  155.2459 C.3     1  UNL1        0.0394
      8 C         142.2817  143.7545  160.4239 C.ar    1  UNL1        0.0536
      9 C         142.7927  143.4263  159.0524 C.ar    1  UNL1        0.0045
     10 C         141.9117  143.6289  157.8554 C.ar    1  UNL1        0.0002
     11 C         140.5197  144.1596  158.0299 C.ar    1  UNL1        0.0008
     12 C         140.0087  144.4879  159.4014 C.ar    1  UNL1        0.0002
     13 C         140.8897  144.2853  160.5984 C.ar    1  UNL1        0.0045
     14 N         143.2898  142.1901  162.2368 N.am    1  UNL1       -0.2761
     15 C         143.1627  143.5519  161.6209 C.2     1  UNL1        0.2490
     16 O         143.9166  144.7111  162.2020 O.2     1  UNL1       -0.2699
     17 C         145.6483  141.8007  163.2545 C.3     1  UNL1        0.0233
     18 C         144.1708  141.9876  163.4338 C.3     1  UNL1        0.0938
     19 C         142.5358  141.0308  161.6556 C.3     1  UNL1        0.0938
     20 C         143.2503  140.0209  160.8074 C.3     1  UNL1        0.0233
     21 C         139.7478  145.6219  156.0260 C.ar    1  UNL1        0.0807
     22 C         140.6477  145.6689  154.8268 C.ar    1  UNL1        0.0191
     23 C         140.7567  146.9287  154.0199 C.ar    1  UNL1        0.0031
     24 C         139.9659  148.1414  154.4121 C.ar    1  UNL1        0.0207
     25 C         139.0660  148.0944  155.6112 C.ar    1  UNL1        0.0988
     26 N         138.9569  146.8347  156.4181 N.ar    1  UNL1       -0.2439
     27 C         135.6783  140.1336  155.2728 C.3     1  UNL1        0.1192
     28 C         134.3231  140.1016  155.9150 C.ar    1  UNL1        0.0823
     29 C         133.1062  140.8408  155.4431 C.ar    1  UNL1        0.0530
     30 S         131.9779  140.5209  156.3783 S.2     1  UNL1       -0.0643
     31 C         132.4975  139.5841  157.4283 C.ar    1  UNL1        0.1341
     32 N         133.9470  139.3250  157.1419 N.ar    1  UNL1       -0.2392
@<TRIPOS>BOND
     1    17    18    1
     2    18    14    1
     3    14    19    1
     4    19    20    1
     5    14    15   am
     6    15    16    2
     7    15     8    1
     8     8     9   ar
     9     9    10   ar
    10    10    11   ar
    11    11     1    1
    12     1     2    2
    13     2     3    1
    14     3     4    1
    15     4     5    1
    16     5    27    1
    17    27    28    1
    18    28    29   ar
    19    29    30   ar
    20    30    31   ar
    21    31    32   ar
    22     5     6    1
    23     6     7    1
    24     1    21    1
    25    21    22   ar
    26    22    23   ar
    27    23    24   ar
    28    24    25   ar
    29    25    26   ar
    30    11    12   ar
    31    12    13   ar
    32    13     8   ar
    33     7     2    1
    34    26    21   ar
    35    32    28   ar
@<TRIPOS>MOLECULE
*****
 32 35 0 0 0
SMALL
GASTEIGER

@<TRIPOS>ATOM
      1 C         139.2875  140.1524  158.3776 C.2     1  UNL1        0.0099
      2 C         140.3706  139.2982  157.7883 C.2     1  UNL1       -0.0400
      3 C         141.2459  138.4730  158.6844 C.3     1  UNL1        0.0394
      4 C         142.3290  137.6188  158.0951 C.3     1  UNL1        0.0768
      5 N         142.5368  137.5898  156.6099 N.3     1  UNL1       -0.2671
      6 C         141.6615  138.4149  155.7139 C.3     1  UNL1        0.0768
      7 C         140.5784  139.2692  156.3031 C.3     1  UNL1        0.0394
      8 C         138.6640  140.2394  162.8333 C.ar    1  UNL1        0.0536
      9 C         139.8010  141.0018  162.2200 C.ar    1  UNL1        0.0045
     10 C         140.0088  140.9728  160.7348 C.ar    1  UNL1        0.0002
     11 C         139.0797  140.1814  159.8628 C.ar    1  UNL1        0.0008
     12 C         137.9427  139.4190  160.4761 C.ar    1  UNL1        0.0002
     13 C         137.7349  139.4480  161.9613 C.ar    1  UNL1        0.0045
     14 N         138.7061  139.0352  165.1351 N.am    1  UNL1       -0.2761
     15 C         138.4562  140.2684  164.3186 C.2     1  UNL1        0.2490
     16 O         137.9986  141.5306  164.9873 O.2     1  UNL1       -0.2699
     17 C         137.4281  138.2185  167.2445 C.3     1  UNL1        0.0233
     18 C         138.4983  139.0642  166.6203 C.3     1  UNL1        0.0938
     19 C         139.1638  137.7729  164.4663 C.3     1  UNL1        0.0938
     20 C         140.6242  137.4335  164.4242 C.3     1  UNL1        0.0233
     21 C         138.4122  140.9776  157.4815 C.ar    1  UNL1        0.0807
     22 C         138.7883  142.3943  157.1633 C.ar    1  UNL1        0.0191
     23 C         137.9130  143.2195  156.2672 C.ar    1  UNL1        0.0031
     24 C         136.6615  142.6279  155.6894 C.ar    1  UNL1        0.0207
     25 C         136.2854  141.2111  156.0077 C.ar    1  UNL1        0.0988
     26 N         137.1607  140.3860  156.9037 N.ar    1  UNL1       -0.2439
     27 C         143.6200  136.7355  156.0207 C.3     1  UNL1        0.1192
     28 C         143.4792  135.2422  156.0176 C.ar    1  UNL1        0.0823
     29 C         143.1080  134.3941  154.8374 C.ar    1  UNL1        0.0530
     30 S         143.0843  132.9625  155.2845 S.2     1  UNL1       -0.0643
     31 C         143.4409  132.9258  156.7411 C.ar    1  UNL1        0.1341
     32 N         143.6849  134.3347  157.1941 N.ar    1  UNL1       -0.2392
@<TRIPOS>BOND
     1    17    18    1
     2    18    14    1
     3    14    19    1
     4    19    20    1
     5    14    15   am
     6    15    16    2
     7    15     8    1
     8     8     9   ar
     9     9    10   ar
    10    10    11   ar
    11    11     1    1
    12     1     2    2
    13     2     3    1
    14     3     4    1
    15     4     5    1
    16     5    27    1
    17    27    28    1
    18    28    29   ar
    19    29    30   ar
    20    30    31   ar
    21    31    32   ar
    22     5     6    1
    23     6     7    1
    24     1    21    1
    25    21    22   ar
    26    22    23   ar
    27    23    24   ar
    28    24    25   ar
    29    25    26   ar
    30    11    12   ar
    31    12    13   ar
    32    13     8   ar
    33     7     2    1
    34    26    21   ar
    35    32    28   ar
@<TRIPOS>MOLECULE
*****
 32 35 0 0 0
SMALL
GASTEIGER

@<TRIPOS>ATOM
      1 C         142.8456  138.4974  157.6435 C.2     1  UNL1        0.0099
      2 C         143.7619  139.4994  157.0061 C.2     1  UNL1       -0.0400
      3 C         144.2303  140.6910  157.7876 C.3     1  UNL1        0.0394
      4 C         145.1466  141.6930  157.1502 C.3     1  UNL1        0.0768
      5 N         145.5945  141.5034  155.7313 N.3     1  UNL1       -0.2671
      6 C         145.1262  140.3119  154.9497 C.3     1  UNL1        0.0768
      7 C         144.2098  139.3098  155.5871 C.3     1  UNL1        0.0394
      8 C         141.5017  139.0660  161.9003 C.ar    1  UNL1        0.0536
      9 C         142.5287  138.0236  161.5710 C.ar    1  UNL1        0.0045
     10 C         142.9767  137.8340  160.1520 C.ar    1  UNL1        0.0002
     11 C         142.3976  138.6869  159.0624 C.ar    1  UNL1        0.0008
     12 C         141.3706  139.7293  159.3918 C.ar    1  UNL1        0.0002
     13 C         140.9226  139.9188  160.8107 C.ar    1  UNL1        0.0045
     14 N         139.8261  138.5528  163.8184 N.am    1  UNL1       -0.2761
     15 C         141.0537  139.2555  163.3193 C.2     1  UNL1        0.2490
     16 O         141.8333  140.1477  164.2391 O.2     1  UNL1       -0.2699
     17 C         138.2771  139.7109  165.5532 C.3     1  UNL1        0.0233
     18 C         139.3782  138.7424  165.2374 C.3     1  UNL1        0.0938
     19 C         139.0464  137.6606  162.8986 C.3     1  UNL1        0.0938
     20 C         137.9629  138.2361  162.0357 C.3     1  UNL1        0.0233
     21 C         142.3772  137.3058  156.8620 C.ar    1  UNL1        0.0807
     22 C         141.0989  137.3768  156.0803 C.ar    1  UNL1        0.0191
     23 C         140.6306  136.1851  155.2988 C.ar    1  UNL1        0.0031
     24 C         141.4406  134.9226  155.2989 C.ar    1  UNL1        0.0207
     25 C         142.7189  134.8517  156.0805 C.ar    1  UNL1        0.0988
     26 N         143.1872  136.0432  156.8620 N.ar    1  UNL1       -0.2439
     27 C         146.5109  142.5055  155.0939 C.3     1  UNL1        0.1192
     28 C         147.9226  142.1246  154.7594 C.ar    1  UNL1        0.0823
     29 C         148.5054  142.0231  153.3810 C.ar    1  UNL1        0.0530
     30 S         149.9424  141.6140  153.5143 S.2     1  UNL1       -0.0643
     31 C         150.2476  141.4626  154.9751 C.ar    1  UNL1        0.1341
     32 N         148.9993  141.7781  155.7446 N.ar    1  UNL1       -0.2392
@<TRIPOS>BOND
     1    17    18    1
     2    18    14    1
     3    14    19    1
     4    19    20    1
     5    14    15   am
     6    15    16    2
     7    15     8    1
     8     8     9   ar
     9     9    10   ar
    10    10    11   ar
    11    11     1    1
    12     1     2    2
    13     2     3    1
    14     3     4    1
    15     4     5    1
    16     5    27    1
    17    27    28    1
    18    28    29   ar
    19    29    30   ar
    20    30    31   ar
    21    31    32   ar
    22     5     6    1
    23     6     7    1
    24     1    21    1
    25    21    22   ar
    26    22    23   ar
    27    23    24   ar
    28    24    25   ar
    29    25    26   ar
    30    11    12   ar
    31    12    13   ar
    32    13     8   ar
    33     7     2    1
    34    26    21   ar
    35    32    28   ar
@<TRIPOS>MOLECULE
*****
 32 35 0 0 0
SMALL
GASTEIGER

@<TRIPOS>ATOM
      1 C         141.6484  142.0552  162.1504 C.2     1  UNL1        0.0099
      2 C         142.2540  141.5785  160.8636 C.2     1  UNL1       -0.0400
      3 C         143.1594  140.3824  160.8585 C.3     1  UNL1        0.0394
      4 C         143.7650  139.9057  159.5718 C.3     1  UNL1        0.0768
      5 N         143.4654  140.6249  158.2900 N.3     1  UNL1       -0.2671
      6 C         142.5601  141.8209  158.2950 C.3     1  UNL1        0.0768
      7 C         141.9544  142.2977  159.5818 C.3     1  UNL1        0.0394
      8 C         142.5472  139.8976  165.9957 C.ar    1  UNL1        0.0536
      9 C         141.4360  139.4189  165.1091 C.ar    1  UNL1        0.0045
     10 C         141.1364  140.1381  163.8273 C.ar    1  UNL1        0.0002
     11 C         141.9480  141.3360  163.4321 C.ar    1  UNL1        0.0008
     12 C         143.0592  141.8147  164.3187 C.ar    1  UNL1        0.0002
     13 C         143.3588  141.0955  165.6005 C.ar    1  UNL1        0.0045
     14 N         142.1429  139.5738  168.5416 N.am    1  UNL1       -0.2761
     15 C         142.8468  139.1783  167.2775 C.2     1  UNL1        0.2490
     16 O         143.8504  138.0637  167.2951 O.2     1  UNL1       -0.2699
     17 C         143.1225  139.5778  170.9479 C.3     1  UNL1        0.0233
     18 C         142.4425  138.8545  169.8234 C.3     1  UNL1        0.0938
     19 C         141.1393  140.6885  168.5240 C.3     1  UNL1        0.0938
     20 C         139.7168  140.4232  168.9189 C.3     1  UNL1        0.0233
     21 C         140.7431  143.2512  162.1554 C.ar    1  UNL1        0.0807
     22 C         141.3151  144.6256  161.9713 C.ar    1  UNL1        0.0191
     23 C         140.4098  145.8216  161.9764 C.ar    1  UNL1        0.0031
     24 C         138.9325  145.6432  162.1654 C.ar    1  UNL1        0.0207
     25 C         138.3605  144.2688  162.3494 C.ar    1  UNL1        0.0988
     26 N         139.2658  143.0729  162.3444 N.ar    1  UNL1       -0.2439
     27 C         144.0711  140.1481  157.0032 C.3     1  UNL1        0.1192
     28 C         145.2758  140.8413  156.4391 C.ar    1  UNL1        0.0823
     29 C         145.9906  142.0076  157.0545 C.ar    1  UNL1        0.0530
     30 S         147.1338  142.3770  156.1563 S.2     1  UNL1       -0.0643
     31 C         147.1255  141.4389  154.9858 C.ar    1  UNL1        0.1341
     32 N         145.9772  140.4898  155.1606 N.ar    1  UNL1       -0.2392
@<TRIPOS>BOND
     1    17    18    1
     2    18    14    1
     3    14    19    1
     4    19    20    1
     5    14    15   am
     6    15    16    2
     7    15     8    1
     8     8     9   ar
     9     9    10   ar
    10    10    11   ar
    11    11     1    1
    12     1     2    2
    13     2     3    1
    14     3     4    1
    15     4     5    1
    16     5    27    1
    17    27    28    1
    18    28    29   ar
    19    29    30   ar
    20    30    31   ar
    21    31    32   ar
    22     5     6    1
    23     6     7    1
    24     1    21    1
    25    21    22   ar
    26    22    23   ar
    27    23    24   ar
    28    24    25   ar
    29    25    26   ar
    30    11    12   ar
    31    12    13   ar
    32    13     8   ar
    33     7     2    1
    34    26    21   ar
    35    32    28   ar
@<TRIPOS>MOLECULE
*****
 32 35 0 0 0
SMALL
GASTEIGER

@<TRIPOS>ATOM
      1 C         141.5273  141.6470  162.1660 C.2     1  UNL1        0.0099
      2 C         141.2046  142.7375  161.1879 C.2     1  UNL1       -0.0400
      3 C         140.6159  144.0294  161.6722 C.3     1  UNL1        0.0394
      4 C         140.2931  145.1198  160.6941 C.3     1  UNL1        0.0768
      5 N         140.5591  144.9184  159.2316 N.3     1  UNL1       -0.2671
      6 C         141.1478  143.6266  158.7473 C.3     1  UNL1        0.0768
      7 C         141.4706  142.5361  159.7255 C.3     1  UNL1        0.0394
      8 C         140.7294  142.2512  166.5533 C.ar    1  UNL1        0.0536
      9 C         139.6218  141.8092  165.6435 C.ar    1  UNL1        0.0045
     10 C         139.8878  141.6078  164.1811 C.ar    1  UNL1        0.0002
     11 C         141.2614  141.8484  163.6285 C.ar    1  UNL1        0.0008
     12 C         142.3689  142.2905  164.5383 C.ar    1  UNL1        0.0002
     13 C         142.1029  142.4919  166.0007 C.ar    1  UNL1        0.0045
     14 N         140.6288  141.3093  168.9725 N.am    1  UNL1       -0.2761
     15 C         140.4634  142.4526  168.0157 C.2     1  UNL1        0.2490
     16 O         140.0320  143.7973  168.5214 O.2     1  UNL1       -0.2699
     17 C         141.4961  141.8201  171.3678 C.3     1  UNL1        0.0233
     18 C         140.3628  141.5107  170.4350 C.3     1  UNL1        0.0938
     19 C         141.0602  139.9646  168.4669 C.3     1  UNL1        0.0938
     20 C         142.5097  139.5803  168.5006 C.3     1  UNL1        0.0233
     21 C         142.1161  140.3552  161.6817 C.ar    1  UNL1        0.0807
     22 C         141.2226  139.1855  161.3928 C.ar    1  UNL1        0.0191
     23 C         141.8114  137.8936  160.9085 C.ar    1  UNL1        0.0031
     24 C         143.2936  137.7715  160.7131 C.ar    1  UNL1        0.0207
     25 C         144.1870  138.9413  161.0020 C.ar    1  UNL1        0.0988
     26 N         143.5983  140.2331  161.4863 N.ar    1  UNL1       -0.2439
     27 C         140.2364  146.0089  158.2535 C.3     1  UNL1        0.1192
     28 C         140.1615  145.7030  156.7870 C.ar    1  UNL1        0.0823
     29 C         139.0628  144.9486  156.0987 C.ar    1  UNL1        0.0530
     30 S         139.3944  144.8771  154.6375 S.2     1  UNL1       -0.0643
     31 C         140.6981  145.5873  154.4228 C.ar    1  UNL1        0.1341
     32 N         141.1722  146.0977  155.7512 N.ar    1  UNL1       -0.2392
@<TRIPOS>BOND
     1    17    18    1
     2    18    14    1
     3    14    19    1
     4    19    20    1
     5    14    15   am
     6    15    16    2
     7    15     8    1
     8     8     9   ar
     9     9    10   ar
    10    10    11   ar
    11    11     1    1
    12     1     2    2
    13     2     3    1
    14     3     4    1
    15     4     5    1
    16     5    27    1
    17    27    28    1
    18    28    29   ar
    19    29    30   ar
    20    30    31   ar
    21    31    32   ar
    22     5     6    1
    23     6     7    1
    24     1    21    1
    25    21    22   ar
    26    22    23   ar
    27    23    24   ar
    28    24    25   ar
    29    25    26   ar
    30    11    12   ar
    31    12    13   ar
    32    13     8   ar
    33     7     2    1
    34    26    21   ar
    35    32    28   ar
@<TRIPOS>MOLECULE
*****
 32 35 0 0 0
SMALL
GASTEIGER

@<TRIPOS>ATOM
      1 C         140.7055  141.5003  162.1784 C.2     1  UNL1        0.0099
      2 C         140.6236  140.6480  160.9468 C.2     1  UNL1       -0.0400
      3 C         141.0443  139.2092  161.0011 C.3     1  UNL1        0.0394
      4 C         140.9623  138.3569  159.7695 C.3     1  UNL1        0.0768
      5 N         140.4597  138.9433  158.4836 N.3     1  UNL1       -0.2671
      6 C         140.0390  140.3821  158.4294 C.3     1  UNL1        0.0768
      7 C         140.1209  141.2344  159.6610 C.3     1  UNL1        0.0394
      8 C         142.2134  139.7409  166.0360 C.ar    1  UNL1        0.0536
      9 C         140.9547  139.2143  165.4129 C.ar    1  UNL1        0.0045
     10 C         140.4521  139.8007  164.1271 C.ar    1  UNL1        0.0002
     11 C         141.2082  140.9138  163.4643 C.ar    1  UNL1        0.0008
     12 C         142.4669  141.4405  164.0873 C.ar    1  UNL1        0.0002
     13 C         142.9695  140.8540  165.3732 C.ar    1  UNL1        0.0045
     14 N         142.1194  139.5883  168.6278 N.am    1  UNL1       -0.2761
     15 C         142.7161  139.1545  167.3218 C.2     1  UNL1        0.2490
     16 O         143.8155  138.1342  167.3017 O.2     1  UNL1       -0.2699
     17 C         143.0982  139.9036  171.0137 C.3     1  UNL1        0.0233
     18 C         142.6220  139.0018  169.9137 C.3     1  UNL1        0.0938
     19 C         141.0199  140.6086  168.6480 C.3     1  UNL1        0.0938
     20 C         139.5954  140.1727  168.8225 C.3     1  UNL1        0.0233
     21 C         140.2848  142.9390  162.1241 C.ar    1  UNL1        0.0807
     22 C         138.9844  143.3639  162.7393 C.ar    1  UNL1        0.0191
     23 C         138.5637  144.8028  162.6850 C.ar    1  UNL1        0.0031
     24 C         139.4434  145.8166  162.0156 C.ar    1  UNL1        0.0207
     25 C         140.7438  145.3917  161.4004 C.ar    1  UNL1        0.0988
     26 N         141.1645  143.9529  161.4546 N.ar    1  UNL1       -0.2439
     27 C         140.3777  138.0909  157.2520 C.3     1  UNL1        0.1192
     28 C         141.6305  137.5477  156.6311 C.ar    1  UNL1        0.0823
     29 C         141.8999  136.1090  156.3035 C.ar    1  UNL1        0.0530
     30 S         143.2697  136.0199  155.6988 S.2     1  UNL1       -0.0643
     31 C         143.8469  137.4037  155.6527 C.ar    1  UNL1        0.1341
     32 N         142.8338  138.3479  156.2289 N.ar    1  UNL1       -0.2392
@<TRIPOS>BOND
     1    17    18    1
     2    18    14    1
     3    14    19    1
     4    19    20    1
     5    14    15   am
     6    15    16    2
     7    15     8    1
     8     8     9   ar
     9     9    10   ar
    10    10    11   ar
    11    11     1    1
    12     1     2    2
    13     2     3    1
    14     3     4    1
    15     4     5    1
    16     5    27    1
    17    27    28    1
    18    28    29   ar
    19    29    30   ar
    20    30    31   ar
    21    31    32   ar
    22     5     6    1
    23     6     7    1
    24     1    21    1
    25    21    22   ar
    26    22    23   ar
    27    23    24   ar
    28    24    25   ar
    29    25    26   ar
    30    11    12   ar
    31    12    13   ar
    32    13     8   ar
    33     7     2    1
    34    26    21   ar
    35    32    28   ar
@<TRIPOS>MOLECULE
*****
 32 35 0 0 0
SMALL
GASTEIGER

@<TRIPOS>ATOM
      1 C         141.4039  140.9040  158.5456 C.2     1  UNL1        0.0099
      2 C         142.0511  139.7307  157.8715 C.2     1  UNL1       -0.0400
      3 C         142.0351  138.3838  158.5315 C.3     1  UNL1        0.0394
      4 C         142.6823  137.2105  157.8574 C.3     1  UNL1        0.0768
      5 N         143.3457  137.3841  156.5233 N.3     1  UNL1       -0.2671
      6 C         143.3618  138.7310  155.8633 C.3     1  UNL1        0.0768
      7 C         142.7145  139.9043  156.5374 C.3     1  UNL1        0.0394
      8 C         139.4139  140.3832  162.5479 C.ar    1  UNL1        0.0536
      9 C         138.6381  140.1404  161.2873 C.ar    1  UNL1        0.0045
     10 C         139.3014  140.3140  159.9532 C.ar    1  UNL1        0.0002
     11 C         140.7405  140.7304  159.8797 C.ar    1  UNL1        0.0008
     12 C         141.5163  140.9732  161.1403 C.ar    1  UNL1        0.0002
     13 C         140.8530  140.7996  162.4744 C.ar    1  UNL1        0.0045
     14 N         138.8350  138.8931  164.5960 N.am    1  UNL1       -0.2761
     15 C         138.7505  140.2096  163.8820 C.2     1  UNL1        0.2490
     16 O         138.0027  141.3524  164.5022 O.2     1  UNL1       -0.2699
     17 C         138.7961  139.3081  167.1605 C.3     1  UNL1        0.0233
     18 C         138.1716  138.7195  165.9301 C.3     1  UNL1        0.0938
     19 C         139.5828  137.7502  163.9759 C.3     1  UNL1        0.0938
     20 C         140.9891  137.4533  164.4048 C.3     1  UNL1        0.0233
     21 C         141.4200  142.2508  157.8856 C.ar    1  UNL1        0.0807
     22 C         142.5071  143.2321  158.2101 C.ar    1  UNL1        0.0191
     23 C         142.5231  144.5791  157.5501 C.ar    1  UNL1        0.0031
     24 C         141.4521  144.9446  156.5656 C.ar    1  UNL1        0.0207
     25 C         140.3650  143.9633  156.2411 C.ar    1  UNL1        0.0988
     26 N         140.3489  142.6165  156.9011 N.ar    1  UNL1       -0.2439
     27 C         143.9930  136.2107  155.8492 C.3     1  UNL1        0.1192
     28 C         143.4579  134.8276  156.0740 C.ar    1  UNL1        0.0823
     29 C         143.9702  133.8361  157.0762 C.ar    1  UNL1        0.0530
     30 S         143.1455  132.5889  156.9576 S.2     1  UNL1       -0.0643
     31 C         142.1234  132.8094  155.8821 C.ar    1  UNL1        0.1341
     32 N         142.3165  134.1931  155.3360 N.ar    1  UNL1       -0.2392
@<TRIPOS>BOND
     1    17    18    1
     2    18    14    1
     3    14    19    1
     4    19    20    1
     5    14    15   am
     6    15    16    2
     7    15     8    1
     8     8     9   ar
     9     9    10   ar
    10    10    11   ar
    11    11     1    1
    12     1     2    2
    13     2     3    1
    14     3     4    1
    15     4     5    1
    16     5    27    1
    17    27    28    1
    18    28    29   ar
    19    29    30   ar
    20    30    31   ar
    21    31    32   ar
    22     5     6    1
    23     6     7    1
    24     1    21    1
    25    21    22   ar
    26    22    23   ar
    27    23    24   ar
    28    24    25   ar
    29    25    26   ar
    30    11    12   ar
    31    12    13   ar
    32    13     8   ar
    33     7     2    1
    34    26    21   ar
    35    32    28   ar
@<TRIPOS>MOLECULE
*****
 32 35 0 0 0
SMALL
GASTEIGER

@<TRIPOS>ATOM
      1 C         142.5309  137.9569  157.4608 C.2     1  UNL1        0.0099
      2 C         143.3603  139.0827  156.9180 C.2     1  UNL1       -0.0400
      3 C         143.3490  140.4190  157.5995 C.3     1  UNL1        0.0394
      4 C         144.1784  141.5447  157.0567 C.3     1  UNL1        0.0768
      5 N         145.0191  141.3343  155.8324 N.3     1  UNL1       -0.2671
      6 C         145.0304  139.9982  155.1509 C.3     1  UNL1        0.0768
      7 C         144.2010  138.8723  155.6937 C.3     1  UNL1        0.0394
      8 C         140.0088  138.5881  161.1338 C.ar    1  UNL1        0.0536
      9 C         139.3970  138.7253  159.7712 C.ar    1  UNL1        0.0045
     10 C         140.2377  138.5149  158.5469 C.ar    1  UNL1        0.0002
     11 C         141.6902  138.1673  158.6851 C.ar    1  UNL1        0.0008
     12 C         142.3021  138.0302  160.0477 C.ar    1  UNL1        0.0002
     13 C         141.4614  138.2406  161.2721 C.ar    1  UNL1        0.0045
     14 N         138.9213  140.1871  162.8689 N.am    1  UNL1       -0.2761
     15 C         139.1681  138.7985  162.3581 C.2     1  UNL1        0.2490
     16 O         138.5743  137.6203  163.0716 O.2     1  UNL1       -0.2699
     17 C         138.6937  140.2650  165.4558 C.3     1  UNL1        0.0233
     18 C         138.0806  140.3974  164.0932 C.3     1  UNL1        0.0938
     19 C         139.5152  141.3653  162.1553 C.3     1  UNL1        0.0938
     20 C         138.6768  142.1668  161.2043 C.3     1  UNL1        0.0233
     21 C         142.5422  136.6208  156.7793 C.ar    1  UNL1        0.0807
     22 C         141.4454  136.2574  155.8228 C.ar    1  UNL1        0.0191
     23 C         141.4567  134.9211  155.1413 C.ar    1  UNL1        0.0031
     24 C         142.5649  133.9484  155.4163 C.ar    1  UNL1        0.0207
     25 C         143.6617  134.3118  156.3728 C.ar    1  UNL1        0.0988
     26 N         143.6504  135.6479  157.0543 N.ar    1  UNL1       -0.2439
     27 C         145.8485  142.4602  155.2895 C.3     1  UNL1        0.1192
     28 C         147.2614  142.2083  154.8532 C.ar    1  UNL1        0.0823
     29 C         148.4274  141.9341  155.7561 C.ar    1  UNL1        0.0530
     30 S         149.6429  141.7427  154.8982 S.2     1  UNL1       -0.0643
     31 C         149.2281  141.8985  153.4651 C.ar    1  UNL1        0.1341
     32 N         147.7562  142.1863  153.4373 N.ar    1  UNL1       -0.2392
@<TRIPOS>BOND
     1    17    18    1
     2    18    14    1
     3    14    19    1
     4    19    20    1
     5    14    15   am
     6    15    16    2
     7    15     8    1
     8     8     9   ar
     9     9    10   ar
    10    10    11   ar
    11    11     1    1
    12     1     2    2
    13     2     3    1
    14     3     4    1
    15     4     5    1
    16     5    27    1
    17    27    28    1
    18    28    29   ar
    19    29    30   ar
    20    30    31   ar
    21    31    32   ar
    22     5     6    1
    23     6     7    1
    24     1    21    1
    25    21    22   ar
    26    22    23   ar
    27    23    24   ar
    28    24    25   ar
    29    25    26   ar
    30    11    12   ar
    31    12    13   ar
    32    13     8   ar
    33     7     2    1
    34    26    21   ar
    35    32    28   ar
@<TRIPOS>MOLECULE
*****
 32 35 0 0 0
SMALL
GASTEIGER

@<TRIPOS>ATOM
      1 C         140.7941  139.5328  157.7799 C.2     1  UNL1        0.0099
      2 C         139.4709  139.8050  157.1281 C.2     1  UNL1       -0.0400
      3 C         138.4582  140.6694  157.8190 C.3     1  UNL1        0.0394
      4 C         137.1349  140.9416  157.1672 C.3     1  UNL1        0.0768
      5 N         136.8243  140.3494  155.8246 N.3     1  UNL1       -0.2671
      6 C         137.8369  139.4850  155.1336 C.3     1  UNL1        0.0768
      7 C         139.1602  139.2128  155.7854 C.3     1  UNL1        0.0394
      8 C         141.7260  141.3094  161.8079 C.ar    1  UNL1        0.0536
      9 C         142.0789  142.0592  160.5577 C.ar    1  UNL1        0.0045
     10 C         141.7683  141.4670  159.2150 C.ar    1  UNL1        0.0002
     11 C         141.1048  140.1250  159.1226 C.ar    1  UNL1        0.0008
     12 C         140.7519  139.3751  160.3728 C.ar    1  UNL1        0.0002
     13 C         141.0625  139.9673  161.7155 C.ar    1  UNL1        0.0045
     14 N         143.3508  141.6107  163.8128 N.am    1  UNL1       -0.2761
     15 C         142.0367  141.9016  163.1506 C.2     1  UNL1        0.2490
     16 O         141.0332  142.7847  163.8312 O.2     1  UNL1       -0.2699
     17 C         144.4309  143.4871  165.2489 C.3     1  UNL1        0.0233
     18 C         143.6614  142.2029  165.1555 C.3     1  UNL1        0.0938
     19 C         144.3543  140.7275  163.1322 C.3     1  UNL1        0.0938
     20 C         144.4325  139.2715  163.4839 C.3     1  UNL1        0.0233
     21 C         141.8067  138.6684  157.0890 C.ar    1  UNL1        0.0807
     22 C         142.8784  139.2952  156.2471 C.ar    1  UNL1        0.0191
     23 C         143.8910  138.4308  155.5561 C.ar    1  UNL1        0.0031
     24 C         143.8320  136.9396  155.7071 C.ar    1  UNL1        0.0207
     25 C         142.7604  136.3128  156.5490 C.ar    1  UNL1        0.0988
     26 N         141.7478  137.1772  157.2399 N.ar    1  UNL1       -0.2439
     27 C         135.5009  140.6216  155.1728 C.3     1  UNL1        0.1192
     28 C         134.2325  140.1689  155.8330 C.ar    1  UNL1        0.0823
     29 C         132.9338  140.9191  155.8554 C.ar    1  UNL1        0.0530
     30 S         131.9386  140.1003  156.6230 S.2     1  UNL1       -0.0643
     31 C         132.6223  138.8440  157.0751 C.ar    1  UNL1        0.1341
     32 N         134.0400  138.8864  156.5869 N.ar    1  UNL1       -0.2392
@<TRIPOS>BOND
     1    17    18    1
     2    18    14    1
     3    14    19    1
     4    19    20    1
     5    14    15   am
     6    15    16    2
     7    15     8    1
     8     8     9   ar
     9     9    10   ar
    10    10    11   ar
    11    11     1    1
    12     1     2    2
    13     2     3    1
    14     3     4    1
    15     4     5    1
    16     5    27    1
    17    27    28    1
    18    28    29   ar
    19    29    30   ar
    20    30    31   ar
    21    31    32   ar
    22     5     6    1
    23     6     7    1
    24     1    21    1
    25    21    22   ar
    26    22    23   ar
    27    23    24   ar
    28    24    25   ar
    29    25    26   ar
    30    11    12   ar
    31    12    13   ar
    32    13     8   ar
    33     7     2    1
    34    26    21   ar
    35    32    28   ar
