@<TRIPOS>MOLECULE
*****
 36 39 0 0 0
SMALL
GASTEIGER

@<TRIPOS>ATOM
      1 C         138.2607  141.1273  162.6096 C.ar    1  UNL1        0.1532
      2 C         137.6931  140.2345  163.6729 C.ar    1  UNL1        0.0573
      3 C         138.3377  140.1760  165.0260 C.ar    1  UNL1        0.0856
      4 N         137.7701  139.2831  166.0893 N.ar    1  UNL1       -0.2435
      5 C         138.4148  139.2247  167.4424 C.ar    1  UNL1        0.1045
      6 C         139.6271  140.0592  167.7323 C.ar    1  UNL1        0.0856
      7 C         140.1947  140.9520  166.6690 C.ar    1  UNL1        0.0557
      8 C         139.5500  141.0105  165.3159 C.ar    1  UNL1        0.0327
      9 C         140.1176  141.9033  164.2526 C.ar    1  UNL1        0.0203
     10 C         139.4729  141.9617  162.8994 C.ar    1  UNL1        0.0825
     11 N         140.0406  142.8546  161.8361 N.pl3   1  UNL1       -0.3037
     12 C         139.6836  144.3073  161.9473 C.3     1  UNL1        0.0923
     13 C         140.0881  145.4408  161.0520 C.3     1  UNL1        0.0387
     14 C         140.9494  145.4017  159.8245 C.3     1  UNL1        0.0739
     15 N         141.6190  144.2194  159.1892 N.3     1  UNL1       -0.2700
     16 C         142.4210  144.5108  157.9555 C.3     1  UNL1        0.0897
     17 C         141.5927  142.7842  159.6243 C.3     1  UNL1        0.0938
     18 C         140.8902  142.1768  160.8024 C.3     1  UNL1        0.1082
     19 C         140.2718  140.0008  169.0854 C.2     1  UNL1        0.2455
     20 N         139.4238  140.0330  170.3222 N.am    1  UNL1       -0.3252
     21 O         141.7646  139.9101  169.2017 O.2     1  UNL1       -0.2703
     22 H         138.4441  140.0925  170.2459 H       1  UNL1        0.1453
     23 H         139.8469  139.9947  171.2103 H       1  UNL1        0.1453
     24 N         141.4070  141.7864  166.9588 N.pl3   1  UNL1       -0.3106
     25 H         141.4093  142.4008  167.7281 H       1  UNL1        0.1523
     26 C         142.6159  141.6848  166.0766 C.ar    1  UNL1        0.0763
     27 C         143.3151  142.9295  165.6162 C.ar    1  UNL1        0.0192
     28 C         144.5240  142.8279  164.7340 C.ar    1  UNL1        0.0311
     29 C         145.0337  141.4816  164.3122 C.ar    1  UNL1        0.1425
     30 F         146.2425  141.3801  163.4300 F       1  UNL1       -0.2041
     31 C         144.3345  140.2370  164.7726 C.ar    1  UNL1        0.0605
     32 C         143.1256  140.3386  165.6548 C.ar    1  UNL1        0.1556
     33 F         142.4263  139.0940  166.1152 F       1  UNL1       -0.2028
     34 O         137.6160  141.1857  161.2565 O.3     1  UNL1       -0.4742
     35 C         138.8599  139.1210  160.2873 C.3     1  UNL1        0.0512
     36 C         137.6323  139.9794  160.3652 C.3     1  UNL1        0.2056
@<TRIPOS>BOND
     1    35    36    1
     2    36    34    1
     3    34     1    1
     4     1     2   ar
     5     2     3   ar
     6     3     4   ar
     7     4     5   ar
     8     5     6   ar
     9     6    19    1
    10    19    20   am
    11    19    21    2
    12     6     7   ar
    13     7    24    1
    14    24    26    1
    15    26    27   ar
    16    27    28   ar
    17    28    29   ar
    18    29    30    1
    19    29    31   ar
    20    31    32   ar
    21    32    33    1
    22     7     8   ar
    23     8     9   ar
    24     9    10   ar
    25    10    11    1
    26    11    12    1
    27    12    13    1
    28    13    14    1
    29    14    15    1
    30    15    16    1
    31    15    17    1
    32    17    18    1
    33    10     1   ar
    34    18    11    1
    35     8     3   ar
    36    32    26   ar
    37    20    22    1
    38    20    23    1
    39    24    25    1
@<TRIPOS>MOLECULE
*****
 36 39 0 0 0
SMALL
GASTEIGER

@<TRIPOS>ATOM
      1 C         143.1692  142.7227  164.9238 C.ar    1  UNL1        0.1532
      2 C         143.2200  142.2986  166.3617 C.ar    1  UNL1        0.0573
      3 C         142.0357  141.6224  166.9865 C.ar    1  UNL1        0.0856
      4 N         142.0865  141.1983  168.4244 N.ar    1  UNL1       -0.2435
      5 C         140.9023  140.5221  169.0492 C.ar    1  UNL1        0.1045
      6 C         139.6672  140.2701  168.2360 C.ar    1  UNL1        0.0856
      7 C         139.6164  140.6942  166.7982 C.ar    1  UNL1        0.0557
      8 C         140.8007  141.3703  166.1734 C.ar    1  UNL1        0.0327
      9 C         140.7500  141.7944  164.7355 C.ar    1  UNL1        0.0203
     10 C         141.9342  142.4706  164.1107 C.ar    1  UNL1        0.0825
     11 N         141.8834  142.8947  162.6728 N.pl3   1  UNL1       -0.3037
     12 C         142.2986  141.8565  161.6730 C.3     1  UNL1        0.0923
     13 C         142.3571  141.9682  160.1783 C.3     1  UNL1        0.0387
     14 C         142.0148  143.1455  159.3143 C.3     1  UNL1        0.0739
     15 N         141.5294  144.5021  159.7315 N.3     1  UNL1       -0.2700
     16 C         141.2730  145.4728  158.6171 C.3     1  UNL1        0.0897
     17 C         141.2665  145.0163  161.1159 C.3     1  UNL1        0.0938
     18 C         141.4241  144.3009  162.4249 C.3     1  UNL1        0.1082
     19 C         138.4829  139.5939  168.8608 C.2     1  UNL1        0.2455
     20 N         138.1298  139.8710  170.2920 N.am    1  UNL1       -0.3252
     21 O         137.6518  138.6405  168.0543 O.2     1  UNL1       -0.2703
     22 H         138.6753  140.4967  170.8213 H       1  UNL1        0.1453
     23 H         137.3525  139.4272  170.7021 H       1  UNL1        0.1453
     24 N         138.3814  140.4421  165.9851 N.pl3   1  UNL1       -0.3106
     25 H         137.5066  140.7578  166.3079 H       1  UNL1        0.1523
     26 C         138.4793  139.7090  164.6800 C.ar    1  UNL1        0.0763
     27 C         139.1933  138.3916  164.6116 C.ar    1  UNL1        0.0192
     28 C         139.2912  137.6585  163.3066 C.ar    1  UNL1        0.0311
     29 C         138.6751  138.2428  162.0700 C.ar    1  UNL1        0.1425
     30 F         138.7730  137.5097  160.7651 F       1  UNL1       -0.2041
     31 C         137.9611  139.5602  162.1385 C.ar    1  UNL1        0.0605
     32 C         137.8632  140.2933  163.4435 C.ar    1  UNL1        0.1556
     33 F         137.1493  141.6107  163.5120 F       1  UNL1       -0.2028
     34 O         144.3535  143.3988  164.2991 O.3     1  UNL1       -0.4742
     35 C         145.6447  141.1867  163.8641 C.3     1  UNL1        0.0512
     36 C         145.3275  142.6023  163.4825 C.3     1  UNL1        0.2056
@<TRIPOS>BOND
     1    35    36    1
     2    36    34    1
     3    34     1    1
     4     1     2   ar
     5     2     3   ar
     6     3     4   ar
     7     4     5   ar
     8     5     6   ar
     9     6    19    1
    10    19    20   am
    11    19    21    2
    12     6     7   ar
    13     7    24    1
    14    24    26    1
    15    26    27   ar
    16    27    28   ar
    17    28    29   ar
    18    29    30    1
    19    29    31   ar
    20    31    32   ar
    21    32    33    1
    22     7     8   ar
    23     8     9   ar
    24     9    10   ar
    25    10    11    1
    26    11    12    1
    27    12    13    1
    28    13    14    1
    29    14    15    1
    30    15    16    1
    31    15    17    1
    32    17    18    1
    33    10     1   ar
    34    18    11    1
    35     8     3   ar
    36    32    26   ar
    37    20    22    1
    38    20    23    1
    39    24    25    1
@<TRIPOS>MOLECULE
*****
 36 39 0 0 0
SMALL
GASTEIGER

@<TRIPOS>ATOM
      1 C         143.7682  142.2155  164.6043 C.ar    1  UNL1        0.1532
      2 C         143.7007  142.6026  166.0519 C.ar    1  UNL1        0.0573
      3 C         142.6904  141.9584  166.9542 C.ar    1  UNL1        0.0856
      4 N         142.6230  142.3456  168.4019 N.ar    1  UNL1       -0.2435
      5 C         141.6126  141.7014  169.3042 C.ar    1  UNL1        0.1045
      6 C         140.6697  140.6701  168.7589 C.ar    1  UNL1        0.0856
      7 C         140.7372  140.2829  167.3113 C.ar    1  UNL1        0.0557
      8 C         141.7475  140.9271  166.4090 C.ar    1  UNL1        0.0327
      9 C         141.8150  140.5400  164.9614 C.ar    1  UNL1        0.0203
     10 C         142.8253  141.1842  164.0590 C.ar    1  UNL1        0.0825
     11 N         142.8928  140.7970  162.6114 N.pl3   1  UNL1       -0.3037
     12 C         143.8510  139.6926  162.2771 C.3     1  UNL1        0.0923
     13 C         144.1462  139.0838  160.9382 C.3     1  UNL1        0.0387
     14 C         143.5560  139.4292  159.6032 C.3     1  UNL1        0.0739
     15 N         142.5248  140.4687  159.2772 N.3     1  UNL1       -0.2700
     16 C         142.1381  140.5709  157.8315 C.3     1  UNL1        0.0897
     17 C         141.8292  141.4194  160.2057 C.3     1  UNL1        0.0938
     18 C         141.9930  141.5656  161.6896 C.3     1  UNL1        0.1082
     19 C         139.6594  140.0259  169.6613 C.2     1  UNL1        0.2455
     20 N         139.9991  139.7586  171.0976 N.am    1  UNL1       -0.3252
     21 O         138.3093  139.6489  169.1272 O.2     1  UNL1       -0.2703
     22 H         140.8852  140.0060  171.4481 H       1  UNL1        0.1453
     23 H         139.3360  139.3358  171.6898 H       1  UNL1        0.1453
     24 N         139.7943  139.2516  166.7661 N.pl3   1  UNL1       -0.3106
     25 H         139.5996  138.4387  167.2862 H       1  UNL1        0.1523
     26 C         139.1480  139.4588  165.4284 C.ar    1  UNL1        0.0763
     27 C         138.3880  140.7218  165.1502 C.ar    1  UNL1        0.0192
     28 C         137.7417  140.9290  163.8126 C.ar    1  UNL1        0.0311
     29 C         137.8555  139.8733  162.7530 C.ar    1  UNL1        0.1425
     30 F         137.2092  140.0806  161.4154 F       1  UNL1       -0.2041
     31 C         138.6155  138.6104  163.0311 C.ar    1  UNL1        0.0605
     32 C         139.2618  138.4032  164.3689 C.ar    1  UNL1        0.1556
     33 F         140.0218  137.1403  164.6470 F       1  UNL1       -0.2028
     34 O         144.7785  142.8597  163.7019 O.3     1  UNL1       -0.4742
     35 C         143.5024  145.1022  163.3974 C.3     1  UNL1        0.0512
     36 C         144.3818  144.0220  162.8408 C.3     1  UNL1        0.2056
@<TRIPOS>BOND
     1    35    36    1
     2    36    34    1
     3    34     1    1
     4     1     2   ar
     5     2     3   ar
     6     3     4   ar
     7     4     5   ar
     8     5     6   ar
     9     6    19    1
    10    19    20   am
    11    19    21    2
    12     6     7   ar
    13     7    24    1
    14    24    26    1
    15    26    27   ar
    16    27    28   ar
    17    28    29   ar
    18    29    30    1
    19    29    31   ar
    20    31    32   ar
    21    32    33    1
    22     7     8   ar
    23     8     9   ar
    24     9    10   ar
    25    10    11    1
    26    11    12    1
    27    12    13    1
    28    13    14    1
    29    14    15    1
    30    15    16    1
    31    15    17    1
    32    17    18    1
    33    10     1   ar
    34    18    11    1
    35     8     3   ar
    36    32    26   ar
    37    20    22    1
    38    20    23    1
    39    24    25    1
@<TRIPOS>MOLECULE
*****
 36 39 0 0 0
SMALL
GASTEIGER

@<TRIPOS>ATOM
      1 C         144.0696  139.7658  162.9668 C.ar    1  UNL1        0.1532
      2 C         144.2974  139.4622  161.5157 C.ar    1  UNL1        0.0573
      3 C         143.1280  139.2286  160.6058 C.ar    1  UNL1        0.0856
      4 N         143.3559  138.9249  159.1545 N.ar    1  UNL1       -0.2435
      5 C         142.1865  138.6913  158.2446 C.ar    1  UNL1        0.1045
      6 C         140.7892  138.7613  158.7859 C.ar    1  UNL1        0.0856
      7 C         140.5614  139.0649  160.2370 C.ar    1  UNL1        0.0557
      8 C         141.7308  139.2986  161.1470 C.ar    1  UNL1        0.0327
      9 C         141.5030  139.6022  162.5981 C.ar    1  UNL1        0.0203
     10 C         142.6724  139.8358  163.5080 C.ar    1  UNL1        0.0825
     11 N         142.4445  140.1395  164.9593 N.pl3   1  UNL1       -0.3037
     12 C         141.7632  141.4433  165.2522 C.3     1  UNL1        0.0923
     13 C         141.3972  142.0288  166.5839 C.3     1  UNL1        0.0387
     14 C         141.6222  141.4550  167.9514 C.3     1  UNL1        0.0739
     15 N         142.2686  140.1541  168.3251 N.3     1  UNL1       -0.2700
     16 C         142.3438  139.8632  169.7947 C.3     1  UNL1        0.0897
     17 C         142.8498  139.1056  167.4236 C.3     1  UNL1        0.0938
     18 C         142.9281  139.0991  165.9256 C.3     1  UNL1        0.1082
     19 C         139.6199  138.5277  157.8759 C.2     1  UNL1        0.2455
     20 N         139.5604  137.2874  157.0344 N.am    1  UNL1       -0.3252
     21 O         138.5099  139.5344  157.8076 O.2     1  UNL1       -0.2703
     22 H         140.2889  136.6268  157.0793 H       1  UNL1        0.1453
     23 H         138.7929  137.1341  156.4372 H       1  UNL1        0.1453
     24 N         139.1643  139.1350  160.7782 N.pl3   1  UNL1       -0.3106
     25 H         138.5760  138.3473  160.7258 H       1  UNL1        0.1523
     26 C         138.6633  140.4052  161.3993 C.ar    1  UNL1        0.0763
     27 C         138.7287  141.6921  160.6315 C.ar    1  UNL1        0.0192
     28 C         138.2278  142.9622  161.2526 C.ar    1  UNL1        0.0311
     29 C         137.6614  142.9455  162.6415 C.ar    1  UNL1        0.1425
     30 F         137.1604  144.2156  163.2625 F       1  UNL1       -0.2041
     31 C         137.5959  141.6586  163.4093 C.ar    1  UNL1        0.0605
     32 C         138.0969  140.3884  162.7882 C.ar    1  UNL1        0.1556
     33 F         138.0315  139.1014  163.5560 F       1  UNL1       -0.2028
     34 O         145.2389  139.9995  163.8768 O.3     1  UNL1       -0.4742
     35 C         145.0471  142.5761  164.1485 C.3     1  UNL1        0.0512
     36 C         145.8862  141.3514  163.9343 C.3     1  UNL1        0.2056
@<TRIPOS>BOND
     1    35    36    1
     2    36    34    1
     3    34     1    1
     4     1     2   ar
     5     2     3   ar
     6     3     4   ar
     7     4     5   ar
     8     5     6   ar
     9     6    19    1
    10    19    20   am
    11    19    21    2
    12     6     7   ar
    13     7    24    1
    14    24    26    1
    15    26    27   ar
    16    27    28   ar
    17    28    29   ar
    18    29    30    1
    19    29    31   ar
    20    31    32   ar
    21    32    33    1
    22     7     8   ar
    23     8     9   ar
    24     9    10   ar
    25    10    11    1
    26    11    12    1
    27    12    13    1
    28    13    14    1
    29    14    15    1
    30    15    16    1
    31    15    17    1
    32    17    18    1
    33    10     1   ar
    34    18    11    1
    35     8     3   ar
    36    32    26   ar
    37    20    22    1
    38    20    23    1
    39    24    25    1
@<TRIPOS>MOLECULE
*****
 36 39 0 0 0
SMALL
GASTEIGER

@<TRIPOS>ATOM
      1 C         139.4898  138.3161  162.5650 C.ar    1  UNL1        0.1532
      2 C         139.4431  138.1222  161.0784 C.ar    1  UNL1        0.0573
      3 C         139.1131  139.2781  160.1812 C.ar    1  UNL1        0.0856
      4 N         139.0664  139.0841  158.6945 N.ar    1  UNL1       -0.2435
      5 C         138.7364  140.2401  157.7973 C.ar    1  UNL1        0.1045
      6 C         138.4531  141.5900  158.3869 C.ar    1  UNL1        0.0856
      7 C         138.4999  141.7839  159.8736 C.ar    1  UNL1        0.0557
      8 C         138.8298  140.6280  160.7707 C.ar    1  UNL1        0.0327
      9 C         138.8766  140.8219  162.2574 C.ar    1  UNL1        0.0203
     10 C         139.2065  139.6660  163.1545 C.ar    1  UNL1        0.0825
     11 N         139.2533  139.8600  164.6412 N.pl3   1  UNL1       -0.3037
     12 C         138.3381  138.9812  165.4413 C.3     1  UNL1        0.0923
     13 C         138.1526  138.9325  166.9290 C.3     1  UNL1        0.0387
     14 C         138.8366  139.7506  167.9840 C.3     1  UNL1        0.0739
     15 N         139.8748  140.8194  167.8119 N.3     1  UNL1       -0.2700
     16 C         140.3675  141.4579  169.0767 C.3     1  UNL1        0.0897
     17 C         140.4856  141.3341  166.5423 C.3     1  UNL1        0.0938
     18 C         140.2090  140.9071  165.1312 C.3     1  UNL1        0.1082
     19 C         138.1231  142.7460  157.4897 C.2     1  UNL1        0.2455
     20 N         136.8493  142.7409  156.6978 N.am    1  UNL1       -0.3252
     21 O         139.0671  143.9070  157.3846 O.2     1  UNL1       -0.2703
     22 H         136.2298  141.9789  156.7669 H       1  UNL1        0.1453
     23 H         136.6327  143.4996  156.1090 H       1  UNL1        0.1453
     24 N         138.2166  143.1338  160.4630 N.pl3   1  UNL1       -0.3106
     25 H         137.3584  143.5803  160.2807 H       1  UNL1        0.1523
     26 C         139.2410  143.8034  161.3304 C.ar    1  UNL1        0.0763
     27 C         140.6714  143.8731  160.8843 C.ar    1  UNL1        0.0192
     28 C         141.6958  144.5426  161.7516 C.ar    1  UNL1        0.0311
     29 C         141.2898  145.1426  163.0651 C.ar    1  UNL1        0.1425
     30 F         142.3142  145.8121  163.9324 F       1  UNL1       -0.2041
     31 C         139.8594  145.0729  163.5113 C.ar    1  UNL1        0.0605
     32 C         138.8350  144.4033  162.6439 C.ar    1  UNL1        0.1556
     33 F         137.4046  144.3336  163.0900 F       1  UNL1       -0.2028
     34 O         139.8198  137.1601  163.4622 O.3     1  UNL1       -0.4742
     35 C         142.2591  138.0251  163.6885 C.3     1  UNL1        0.0512
     36 C         141.2192  136.9819  163.9718 C.3     1  UNL1        0.2056
@<TRIPOS>BOND
     1    35    36    1
     2    36    34    1
     3    34     1    1
     4     1     2   ar
     5     2     3   ar
     6     3     4   ar
     7     4     5   ar
     8     5     6   ar
     9     6    19    1
    10    19    20   am
    11    19    21    2
    12     6     7   ar
    13     7    24    1
    14    24    26    1
    15    26    27   ar
    16    27    28   ar
    17    28    29   ar
    18    29    30    1
    19    29    31   ar
    20    31    32   ar
    21    32    33    1
    22     7     8   ar
    23     8     9   ar
    24     9    10   ar
    25    10    11    1
    26    11    12    1
    27    12    13    1
    28    13    14    1
    29    14    15    1
    30    15    16    1
    31    15    17    1
    32    17    18    1
    33    10     1   ar
    34    18    11    1
    35     8     3   ar
    36    32    26   ar
    37    20    22    1
    38    20    23    1
    39    24    25    1
@<TRIPOS>MOLECULE
*****
 36 39 0 0 0
SMALL
GASTEIGER

@<TRIPOS>ATOM
      1 C         139.5035  138.2530  164.0049 C.ar    1  UNL1        0.1532
      2 C         138.6398  138.1864  165.2294 C.ar    1  UNL1        0.0573
      3 C         139.0092  138.9738  166.4515 C.ar    1  UNL1        0.0856
      4 N         138.1454  138.9072  167.6761 N.ar    1  UNL1       -0.2435
      5 C         138.5148  139.6945  168.8982 C.ar    1  UNL1        0.1045
      6 C         139.7481  140.5484  168.8958 C.ar    1  UNL1        0.0856
      7 C         140.6119  140.6149  167.6713 C.ar    1  UNL1        0.0557
      8 C         140.2425  139.8276  166.4492 C.ar    1  UNL1        0.0327
      9 C         141.1062  139.8941  165.2247 C.ar    1  UNL1        0.0203
     10 C         140.7368  139.1068  164.0025 C.ar    1  UNL1        0.0825
     11 N         141.6006  139.1734  162.7780 N.pl3   1  UNL1       -0.3037
     12 C         142.6588  138.1158  162.6698 C.3     1  UNL1        0.0923
     13 C         143.6697  137.9124  161.5804 C.3     1  UNL1        0.0387
     14 C         143.8722  138.7164  160.3303 C.3     1  UNL1        0.0739
     15 N         143.1136  139.9223  159.8608 N.3     1  UNL1       -0.2700
     16 C         143.5628  140.5055  158.5538 C.3     1  UNL1        0.0897
     17 C         141.9654  140.6221  160.5254 C.3     1  UNL1        0.0938
     18 C         141.2920  140.2888  161.8237 C.3     1  UNL1        0.1082
     19 C         140.1176  141.3357  170.1180 C.2     1  UNL1        0.2455
     20 N         140.4015  140.6270  171.4092 N.am    1  UNL1       -0.3252
     21 O         140.2032  142.8317  170.0489 O.2     1  UNL1       -0.2703
     22 H         140.3453  139.6452  171.4545 H       1  UNL1        0.1453
     23 H         140.6439  141.1438  172.2113 H       1  UNL1        0.1453
     24 N         141.8451  141.4687  167.6690 N.pl3   1  UNL1       -0.3106
     25 H         142.4573  141.4515  168.4399 H       1  UNL1        0.1523
     26 C         142.1457  142.3490  166.4921 C.ar    1  UNL1        0.0763
     27 C         143.5441  142.4323  165.9557 C.ar    1  UNL1        0.0192
     28 C         143.8447  143.3124  164.7789 C.ar    1  UNL1        0.0311
     29 C         142.7470  144.1093  164.1385 C.ar    1  UNL1        0.1425
     30 F         143.0476  144.9895  162.9617 F       1  UNL1       -0.2041
     31 C         141.3487  144.0260  164.6749 C.ar    1  UNL1        0.0605
     32 C         141.0481  143.1458  165.8518 C.ar    1  UNL1        0.1556
     33 F         139.6497  143.0624  166.3882 F       1  UNL1       -0.2028
     34 O         139.1341  137.4657  162.7827 O.3     1  UNL1       -0.4742
     35 C         137.7442  139.4744  161.8977 C.3     1  UNL1        0.0512
     36 C         138.1902  138.0477  161.7726 C.3     1  UNL1        0.2056
@<TRIPOS>BOND
     1    35    36    1
     2    36    34    1
     3    34     1    1
     4     1     2   ar
     5     2     3   ar
     6     3     4   ar
     7     4     5   ar
     8     5     6   ar
     9     6    19    1
    10    19    20   am
    11    19    21    2
    12     6     7   ar
    13     7    24    1
    14    24    26    1
    15    26    27   ar
    16    27    28   ar
    17    28    29   ar
    18    29    30    1
    19    29    31   ar
    20    31    32   ar
    21    32    33    1
    22     7     8   ar
    23     8     9   ar
    24     9    10   ar
    25    10    11    1
    26    11    12    1
    27    12    13    1
    28    13    14    1
    29    14    15    1
    30    15    16    1
    31    15    17    1
    32    17    18    1
    33    10     1   ar
    34    18    11    1
    35     8     3   ar
    36    32    26   ar
    37    20    22    1
    38    20    23    1
    39    24    25    1
@<TRIPOS>MOLECULE
*****
 36 39 0 0 0
SMALL
GASTEIGER

@<TRIPOS>ATOM
      1 C         141.7868  138.5309  164.8814 C.ar    1  UNL1        0.1532
      2 C         141.6986  137.8772  163.5343 C.ar    1  UNL1        0.0573
      3 C         140.7084  138.3739  162.5230 C.ar    1  UNL1        0.0856
      4 N         140.6202  137.7201  161.1758 N.ar    1  UNL1       -0.2435
      5 C         139.6300  138.2169  160.1645 C.ar    1  UNL1        0.1045
      6 C         138.7280  139.3675  160.5003 C.ar    1  UNL1        0.0856
      7 C         138.8163  140.0212  161.8474 C.ar    1  UNL1        0.0557
      8 C         139.8065  139.5245  162.8588 C.ar    1  UNL1        0.0327
      9 C         139.8948  140.1782  164.2059 C.ar    1  UNL1        0.0203
     10 C         140.8849  139.6814  165.2172 C.ar    1  UNL1        0.0825
     11 N         140.9732  140.3353  166.5644 N.pl3   1  UNL1       -0.3037
     12 C         139.9388  139.9091  167.5636 C.3     1  UNL1        0.0923
     13 C         139.7600  140.3713  168.9794 C.3     1  UNL1        0.0387
     14 C         140.5713  141.3736  169.7456 C.3     1  UNL1        0.0739
     15 N         141.7618  142.1615  169.2852 N.3     1  UNL1       -0.2700
     16 C         142.3579  143.0924  170.2992 C.3     1  UNL1        0.0897
     17 C         142.4351  142.1415  167.9450 C.3     1  UNL1        0.0938
     18 C         142.0841  141.3288  166.7341 C.3     1  UNL1        0.1082
     19 C         137.7379  139.8643  159.4890 C.2     1  UNL1        0.2455
     20 N         138.2106  140.3387  158.1468 N.am    1  UNL1       -0.3252
     21 O         136.2749  139.8866  159.8199 O.2     1  UNL1       -0.2703
     22 H         139.1707  140.3240  157.9297 H       1  UNL1        0.1453
     23 H         137.5607  140.6647  157.4831 H       1  UNL1        0.1453
     24 N         137.9144  141.1718  162.1832 N.pl3   1  UNL1       -0.3106
     25 H         136.9722  141.0069  162.4162 H       1  UNL1        0.1523
     26 C         138.4481  142.5735  162.1641 C.ar    1  UNL1        0.0763
     27 C         139.2426  143.0575  160.9875 C.ar    1  UNL1        0.0192
     28 C         139.7763  144.4592  160.9683 C.ar    1  UNL1        0.0311
     29 C         139.5154  145.3770  162.1258 C.ar    1  UNL1        0.1425
     30 F         140.0491  146.7787  162.1066 F       1  UNL1       -0.2041
     31 C         138.7209  144.8930  163.3024 C.ar    1  UNL1        0.0605
     32 C         138.1872  143.4912  163.3215 C.ar    1  UNL1        0.1556
     33 F         137.3927  143.0072  164.4982 F       1  UNL1       -0.2028
     34 O         142.7770  138.0341  165.8927 O.3     1  UNL1       -0.4742
     35 C         144.6987  139.3200  164.7079 C.3     1  UNL1        0.0512
     36 C         144.1767  138.5734  165.8996 C.3     1  UNL1        0.2056
@<TRIPOS>BOND
     1    35    36    1
     2    36    34    1
     3    34     1    1
     4     1     2   ar
     5     2     3   ar
     6     3     4   ar
     7     4     5   ar
     8     5     6   ar
     9     6    19    1
    10    19    20   am
    11    19    21    2
    12     6     7   ar
    13     7    24    1
    14    24    26    1
    15    26    27   ar
    16    27    28   ar
    17    28    29   ar
    18    29    30    1
    19    29    31   ar
    20    31    32   ar
    21    32    33    1
    22     7     8   ar
    23     8     9   ar
    24     9    10   ar
    25    10    11    1
    26    11    12    1
    27    12    13    1
    28    13    14    1
    29    14    15    1
    30    15    16    1
    31    15    17    1
    32    17    18    1
    33    10     1   ar
    34    18    11    1
    35     8     3   ar
    36    32    26   ar
    37    20    22    1
    38    20    23    1
    39    24    25    1
@<TRIPOS>MOLECULE
*****
 36 39 0 0 0
SMALL
GASTEIGER

@<TRIPOS>ATOM
      1 C         138.8449  140.5827  162.5714 C.ar    1  UNL1        0.1532
      2 C         138.3595  140.9887  161.2115 C.ar    1  UNL1        0.0573
      3 C         139.0352  142.1088  160.4774 C.ar    1  UNL1        0.0856
      4 N         138.5497  142.5148  159.1174 N.ar    1  UNL1       -0.2435
      5 C         139.2254  143.6349  158.3834 C.ar    1  UNL1        0.1045
      6 C         140.3866  144.3490  159.0094 C.ar    1  UNL1        0.0856
      7 C         140.8720  143.9430  160.3693 C.ar    1  UNL1        0.0557
      8 C         140.1963  142.8229  161.1033 C.ar    1  UNL1        0.0327
      9 C         140.6817  142.4169  162.4633 C.ar    1  UNL1        0.0203
     10 C         140.0060  141.2968  163.1973 C.ar    1  UNL1        0.0825
     11 N         140.4915  140.8909  164.5573 N.pl3   1  UNL1       -0.3037
     12 C         141.8509  140.2585  164.6011 C.3     1  UNL1        0.0923
     13 C         142.6079  139.7501  165.7921 C.3     1  UNL1        0.0387
     14 C         142.1924  139.7484  167.2334 C.3     1  UNL1        0.0739
     15 N         140.9173  140.2547  167.8397 N.3     1  UNL1       -0.2700
     16 C         140.8014  140.1087  169.3281 C.3     1  UNL1        0.0897
     17 C         139.7427  140.8878  167.1545 C.3     1  UNL1        0.0938
     18 C         139.5532  141.1709  165.6937 C.3     1  UNL1        0.1082
     19 C         141.0623  145.4691  158.2753 C.2     1  UNL1        0.2455
     20 N         140.2415  146.4877  157.5414 N.am    1  UNL1       -0.3252
     21 O         142.5589  145.5706  158.2752 O.2     1  UNL1       -0.2703
     22 H         139.2592  146.4211  157.5415 H       1  UNL1        0.1453
     23 H         140.6850  147.2229  157.0597 H       1  UNL1        0.1453
     24 N         142.0331  144.6571  160.9952 N.pl3   1  UNL1       -0.3106
     25 H         142.0995  145.6374  160.9334 H       1  UNL1        0.1523
     26 C         143.0932  143.8776  161.7154 C.ar    1  UNL1        0.0763
     27 C         143.8514  142.8013  160.9965 C.ar    1  UNL1        0.0192
     28 C         144.9114  142.0218  161.7166 C.ar    1  UNL1        0.0311
     29 C         145.2134  142.3186  163.1557 C.ar    1  UNL1        0.1425
     30 F         146.2734  141.5390  163.8758 F       1  UNL1       -0.2041
     31 C         144.4552  143.3949  163.8746 C.ar    1  UNL1        0.0605
     32 C         143.3951  144.1744  163.1544 C.ar    1  UNL1        0.1556
     33 F         142.6370  145.2507  163.8733 F       1  UNL1       -0.2028
     34 O         138.1692  139.4627  163.3054 O.3     1  UNL1       -0.4742
     35 C         139.2241  137.5392  164.6973 C.3     1  UNL1        0.0512
     36 C         138.8166  138.1113  163.3719 C.3     1  UNL1        0.2056
@<TRIPOS>BOND
     1    35    36    1
     2    36    34    1
     3    34     1    1
     4     1     2   ar
     5     2     3   ar
     6     3     4   ar
     7     4     5   ar
     8     5     6   ar
     9     6    19    1
    10    19    20   am
    11    19    21    2
    12     6     7   ar
    13     7    24    1
    14    24    26    1
    15    26    27   ar
    16    27    28   ar
    17    28    29   ar
    18    29    30    1
    19    29    31   ar
    20    31    32   ar
    21    32    33    1
    22     7     8   ar
    23     8     9   ar
    24     9    10   ar
    25    10    11    1
    26    11    12    1
    27    12    13    1
    28    13    14    1
    29    14    15    1
    30    15    16    1
    31    15    17    1
    32    17    18    1
    33    10     1   ar
    34    18    11    1
    35     8     3   ar
    36    32    26   ar
    37    20    22    1
    38    20    23    1
    39    24    25    1
@<TRIPOS>MOLECULE
*****
 36 39 0 0 0
SMALL
GASTEIGER

@<TRIPOS>ATOM
      1 C         138.5809  140.4512  165.0393 C.ar    1  UNL1        0.1532
      2 C         137.8844  140.5512  163.7146 C.ar    1  UNL1        0.0573
      3 C         138.4204  141.4647  162.6524 C.ar    1  UNL1        0.0856
      4 N         137.7239  141.5647  161.3277 N.ar    1  UNL1       -0.2435
      5 C         138.2599  142.4782  160.2655 C.ar    1  UNL1        0.1045
      6 C         139.4925  143.2918  160.5282 C.ar    1  UNL1        0.0856
      7 C         140.1890  143.1918  161.8529 C.ar    1  UNL1        0.0557
      8 C         139.6530  142.2783  162.9150 C.ar    1  UNL1        0.0327
      9 C         140.3494  142.1783  164.2397 C.ar    1  UNL1        0.0203
     10 C         139.8134  141.2648  165.3018 C.ar    1  UNL1        0.0825
     11 N         140.5099  141.1649  166.6266 N.pl3   1  UNL1       -0.3037
     12 C         141.5081  140.0526  166.7548 C.3     1  UNL1        0.0923
     13 C         142.3591  139.6913  167.9361 C.3     1  UNL1        0.0387
     14 C         142.4220  140.3529  169.2808 C.3     1  UNL1        0.0739
     15 N         141.6494  141.5392  169.7764 N.3     1  UNL1       -0.2700
     16 C         141.9418  141.9640  171.1850 C.3     1  UNL1        0.0897
     17 C         140.6233  142.3571  169.0498 C.3     1  UNL1        0.0938
     18 C         140.1161  142.1904  167.6479 C.3     1  UNL1        0.1082
     19 C         140.0285  144.2053  159.4660 C.2     1  UNL1        0.2455
     20 N         140.6599  143.6318  158.2322 N.am    1  UNL1       -0.3252
     21 O         139.9331  145.6924  159.6378 O.2     1  UNL1       -0.2703
     22 H         140.7225  142.6558  158.1195 H       1  UNL1        0.1453
     23 H         141.0118  144.2314  157.5351 H       1  UNL1        0.1453
     24 N         141.4215  144.0054  162.1154 N.pl3   1  UNL1       -0.3106
     25 H         141.3945  144.9848  162.0195 H       1  UNL1        0.1523
     26 C         142.6952  143.3267  162.5242 C.ar    1  UNL1        0.0763
     27 C         143.1713  142.1144  161.7800 C.ar    1  UNL1        0.0192
     28 C         144.4450  141.4357  162.1887 C.ar    1  UNL1        0.0311
     29 C         145.2426  141.9692  163.3417 C.ar    1  UNL1        0.1425
     30 F         146.5163  141.2905  163.7504 F       1  UNL1       -0.2041
     31 C         144.7665  143.1815  164.0859 C.ar    1  UNL1        0.0605
     32 C         143.4928  143.8602  163.6771 C.ar    1  UNL1        0.1556
     33 F         143.0167  145.0724  164.4213 F       1  UNL1       -0.2028
     34 O         138.0449  139.5377  166.1014 O.3     1  UNL1       -0.4742
     35 C         139.2802  137.5282  165.0125 C.3     1  UNL1        0.0512
     36 C         138.3212  138.0650  166.0334 C.3     1  UNL1        0.2056
@<TRIPOS>BOND
     1    35    36    1
     2    36    34    1
     3    34     1    1
     4     1     2   ar
     5     2     3   ar
     6     3     4   ar
     7     4     5   ar
     8     5     6   ar
     9     6    19    1
    10    19    20   am
    11    19    21    2
    12     6     7   ar
    13     7    24    1
    14    24    26    1
    15    26    27   ar
    16    27    28   ar
    17    28    29   ar
    18    29    30    1
    19    29    31   ar
    20    31    32   ar
    21    32    33    1
    22     7     8   ar
    23     8     9   ar
    24     9    10   ar
    25    10    11    1
    26    11    12    1
    27    12    13    1
    28    13    14    1
    29    14    15    1
    30    15    16    1
    31    15    17    1
    32    17    18    1
    33    10     1   ar
    34    18    11    1
    35     8     3   ar
    36    32    26   ar
    37    20    22    1
    38    20    23    1
    39    24    25    1
