@<TRIPOS>MOLECULE
*****
 31 34 0 0 0
SMALL
GASTEIGER

@<TRIPOS>ATOM
      1 C         139.8057  141.2891  161.8781 C.3     1  UNL1        0.1505
      2 O         140.1789  142.3597  160.8959 O.3     1  UNL1       -0.3788
      3 H         140.4771  141.9499  160.0688 H       1  UNL1        0.2108
      4 C         139.4485  142.3397  162.8874 C.ar    1  UNL1        0.0330
      5 C         138.0083  142.6332  163.1869 C.ar    1  UNL1        0.0026
      6 C         137.6512  143.6837  164.1963 C.ar    1  UNL1        0.0295
      7 C         138.7342  144.4408  164.9061 C.ar    1  UNL1        0.1424
      8 F         138.3770  145.4914  165.9154 F       1  UNL1       -0.2041
      9 C         140.1743  144.1473  164.6066 C.ar    1  UNL1        0.0590
     10 C         140.5315  143.0968  163.5973 C.ar    1  UNL1        0.1407
     11 F         141.9718  142.8033  163.2978 F       1  UNL1       -0.2043
     12 C         138.2447  139.3408  162.5976 C.3     1  UNL1        0.0275
     13 C         139.4324  140.2186  162.8602 C.3     1  UNL1        0.1202
     14 N         140.2468  140.0259  164.1050 N.ar    1  UNL1       -0.2773
     15 C         141.7051  139.6897  164.0027 C.ar    1  UNL1        0.1808
     16 N         142.5194  139.4969  165.2475 N.ar    1  UNL1       -0.2252
     17 C         141.8756  139.6404  166.5948 C.ar    1  UNL1        0.0884
     18 C         142.6899  139.4476  167.8396 C.ar    1  UNL1        0.0307
     19 C         142.0461  139.5910  169.1867 C.ar    1  UNL1        0.0592
     20 CL        142.8605  139.3983  170.4316 Cl      1  UNL1       -0.0822
     21 C         140.5878  139.9272  169.2890 C.ar    1  UNL1        0.0116
     22 C         139.7734  140.1200  168.0442 C.ar    1  UNL1        0.0071
     23 C         140.4173  139.9765  166.6971 C.ar    1  UNL1        0.0739
     24 C         139.6029  140.1693  165.4522 C.ar    1  UNL1        0.2634
     25 O         138.1447  140.5055  165.5545 O.2     1  UNL1       -0.2669
     26 C         140.1628  140.2386  160.8687 C.3     1  UNL1        0.1621
     27 N         141.6027  139.9577  160.5560 N.ar    1  UNL1       -0.2272
     28 C         142.1588  138.6578  160.0552 C.ar    1  UNL1        0.1973
     29 N         143.6392  138.8242  159.8788 N.ar    1  UNL1       -0.2007
     30 C         143.9979  140.2269  160.2707 C.ar    1  UNL1        0.2210
     31 N         142.7393  140.9276  160.6892 N.ar    1  UNL1       -0.1451
@<TRIPOS>BOND
     1    13    12    1
     2    13    14    1
     3    14    15   ar
     4    15    16   ar
     5    16    17   ar
     6    17    18   ar
     7    18    19   ar
     8    19    20    1
     9    19    21   ar
    10    21    22   ar
    11    22    23   ar
    12    23    24   ar
    13    24    25    2
    14    13     1    1
    15     1     2    1
    16     1    26    1
    17    26    27    1
    18    27    28   ar
    19    28    29   ar
    20    29    30   ar
    21    30    31   ar
    22     1     4    1
    23     4     5   ar
    24     5     6   ar
    25     6     7   ar
    26     7     8    1
    27     7     9   ar
    28     9    10   ar
    29    10    11    1
    30    24    14   ar
    31    31    27   ar
    32    10     4   ar
    33    23    17   ar
    34     2     3    1
@<TRIPOS>MOLECULE
*****
 31 34 0 0 0
SMALL
GASTEIGER

@<TRIPOS>ATOM
      1 C         140.5223  141.2792  166.9397 C.3     1  UNL1        0.1505
      2 O         139.4926  140.4591  167.6589 O.3     1  UNL1       -0.3788
      3 H         139.1830  140.9422  168.4410 H       1  UNL1        0.2108
      4 C         140.6659  140.1968  165.9112 C.ar    1  UNL1        0.0330
      5 C         141.8483  139.2748  165.9528 C.ar    1  UNL1        0.0026
      6 C         141.9919  138.1924  164.9242 C.ar    1  UNL1        0.0295
      7 C         140.9532  138.0322  163.8541 C.ar    1  UNL1        0.1424
      8 F         141.0968  136.9498  162.8255 F       1  UNL1       -0.2041
      9 C         139.7708  138.9542  163.8125 C.ar    1  UNL1        0.0590
     10 C         139.6272  140.0365  164.8410 C.ar    1  UNL1        0.1407
     11 F         138.4448  140.9586  164.7993 F       1  UNL1       -0.2043
     12 C         142.9664  142.1323  166.7192 C.3     1  UNL1        0.0275
     13 C         141.5520  142.0992  166.2206 C.3     1  UNL1        0.1202
     14 N         141.1675  142.8861  165.0029 N.ar    1  UNL1       -0.2773
     15 C         140.0626  143.8975  165.0816 C.ar    1  UNL1        0.1808
     16 N         139.6780  144.6845  163.8640 N.ar    1  UNL1       -0.2252
     17 C         140.3984  144.4601  162.5675 C.ar    1  UNL1        0.0884
     18 C         140.0138  145.2470  161.3498 C.ar    1  UNL1        0.0307
     19 C         140.7342  145.0226  160.0534 C.ar    1  UNL1        0.0592
     20 CL        140.3497  145.8095  158.8357 Cl      1  UNL1       -0.0822
     21 C         141.8392  144.0112  159.9747 C.ar    1  UNL1        0.0116
     22 C         142.2237  143.2242  161.1924 C.ar    1  UNL1        0.0071
     23 C         141.5033  143.4487  162.4888 C.ar    1  UNL1        0.0739
     24 C         141.8879  142.6617  163.7066 C.ar    1  UNL1        0.2634
     25 O         142.9928  141.6503  163.6279 O.2     1  UNL1       -0.2669
     26 C         140.3787  142.3615  167.9683 C.3     1  UNL1        0.1621
     27 N         140.5906  142.0494  169.4200 N.ar    1  UNL1       -0.2272
     28 C         139.9738  142.7772  170.5775 C.ar    1  UNL1        0.1973
     29 N         140.4586  142.1323  171.8421 N.ar    1  UNL1       -0.2007
     30 C         141.3751  141.0059  171.4662 C.ar    1  UNL1        0.2210
     31 N         141.4568  140.9546  169.9692 N.ar    1  UNL1       -0.1451
@<TRIPOS>BOND
     1    13    12    1
     2    13    14    1
     3    14    15   ar
     4    15    16   ar
     5    16    17   ar
     6    17    18   ar
     7    18    19   ar
     8    19    20    1
     9    19    21   ar
    10    21    22   ar
    11    22    23   ar
    12    23    24   ar
    13    24    25    2
    14    13     1    1
    15     1     2    1
    16     1    26    1
    17    26    27    1
    18    27    28   ar
    19    28    29   ar
    20    29    30   ar
    21    30    31   ar
    22     1     4    1
    23     4     5   ar
    24     5     6   ar
    25     6     7   ar
    26     7     8    1
    27     7     9   ar
    28     9    10   ar
    29    10    11    1
    30    24    14   ar
    31    31    27   ar
    32    10     4   ar
    33    23    17   ar
    34     2     3    1
@<TRIPOS>MOLECULE
*****
 31 34 0 0 0
SMALL
GASTEIGER

@<TRIPOS>ATOM
      1 C         142.4756  142.9473  162.5720 C.3     1  UNL1        0.1505
      2 O         142.3654  142.1734  161.2918 O.3     1  UNL1       -0.3788
      3 H         141.8095  142.6625  160.6652 H       1  UNL1        0.2108
      4 C         143.3485  141.8715  163.1472 C.ar    1  UNL1        0.0330
      5 C         144.8197  142.1098  163.3160 C.ar    1  UNL1        0.0026
      6 C         145.6926  141.0340  163.8912 C.ar    1  UNL1        0.0295
      7 C         145.0941  139.7200  164.2976 C.ar    1  UNL1        0.1424
      8 F         145.9670  138.6442  164.8728 F       1  UNL1       -0.2041
      9 C         143.6229  139.4818  164.1287 C.ar    1  UNL1        0.0590
     10 C         142.7500  140.5575  163.5535 C.ar    1  UNL1        0.1407
     11 F         141.2787  140.3193  163.3847 F       1  UNL1       -0.2043
     12 C         143.2437  145.0694  163.8593 C.3     1  UNL1        0.0275
     13 C         142.5859  143.7213  163.8522 C.3     1  UNL1        0.1202
     14 N         142.0384  143.1472  165.1252 N.ar    1  UNL1       -0.2773
     15 C         140.5924  142.7578  165.2113 C.ar    1  UNL1        0.1808
     16 N         140.0448  142.1837  166.4843 N.ar    1  UNL1       -0.2252
     17 C         140.9433  141.9989  167.6713 C.ar    1  UNL1        0.0884
     18 C         140.3958  141.4249  168.9443 C.ar    1  UNL1        0.0307
     19 C         141.2943  141.2402  170.1311 C.ar    1  UNL1        0.0592
     20 CL        140.7468  140.6660  171.4042 Cl      1  UNL1       -0.0822
     21 C         142.7403  141.6296  170.0449 C.ar    1  UNL1        0.0116
     22 C         143.2878  142.2037  168.7719 C.ar    1  UNL1        0.0071
     23 C         142.3893  142.3884  167.5851 C.ar    1  UNL1        0.0739
     24 C         142.9368  142.9625  166.3120 C.ar    1  UNL1        0.2634
     25 O         144.3829  143.3519  166.2258 O.2     1  UNL1       -0.2669
     26 C         141.6028  144.0231  161.9968 C.3     1  UNL1        0.1621
     27 N         140.1123  143.9364  162.1405 N.ar    1  UNL1       -0.2272
     28 C         139.2022  145.0472  162.5736 C.ar    1  UNL1        0.1973
     29 N         137.7974  144.5209  162.5771 N.ar    1  UNL1       -0.2007
     30 C         137.8395  143.0847  162.1462 C.ar    1  UNL1        0.2210
     31 N         139.2701  142.7234  161.8764 N.ar    1  UNL1       -0.1451
@<TRIPOS>BOND
     1    13    12    1
     2    13    14    1
     3    14    15   ar
     4    15    16   ar
     5    16    17   ar
     6    17    18   ar
     7    18    19   ar
     8    19    20    1
     9    19    21   ar
    10    21    22   ar
    11    22    23   ar
    12    23    24   ar
    13    24    25    2
    14    13     1    1
    15     1     2    1
    16     1    26    1
    17    26    27    1
    18    27    28   ar
    19    28    29   ar
    20    29    30   ar
    21    30    31   ar
    22     1     4    1
    23     4     5   ar
    24     5     6   ar
    25     6     7   ar
    26     7     8    1
    27     7     9   ar
    28     9    10   ar
    29    10    11    1
    30    24    14   ar
    31    31    27   ar
    32    10     4   ar
    33    23    17   ar
    34     2     3    1
@<TRIPOS>MOLECULE
*****
 31 34 0 0 0
SMALL
GASTEIGER

@<TRIPOS>ATOM
      1 C         139.7559  141.5932  161.8914 C.3     1  UNL1        0.1505
      2 O         140.1234  142.7103  160.9603 O.3     1  UNL1       -0.3788
      3 H         140.4373  142.3408  160.1201 H       1  UNL1        0.2108
      4 C         139.3711  142.5941  162.9403 C.ar    1  UNL1        0.0330
      5 C         137.9233  142.8787  163.2102 C.ar    1  UNL1        0.0026
      6 C         137.5385  143.8796  164.2591 C.ar    1  UNL1        0.0295
      7 C         138.6015  144.5960  165.0380 C.ar    1  UNL1        0.1424
      8 F         138.2167  145.5969  166.0869 F       1  UNL1       -0.2041
      9 C         140.0493  144.3114  164.7681 C.ar    1  UNL1        0.0590
     10 C         140.4341  143.3105  163.7192 C.ar    1  UNL1        0.1407
     11 F         141.8820  143.0260  163.4493 F       1  UNL1       -0.2043
     12 C         138.1981  139.6129  162.5253 C.3     1  UNL1        0.0275
     13 C         139.3883  140.4762  162.8226 C.3     1  UNL1        0.1202
     14 N         140.2108  140.2223  164.0510 N.ar    1  UNL1       -0.2773
     15 C         141.6667  139.8850  163.9222 C.ar    1  UNL1        0.1808
     16 N         142.4892  139.6311  165.1506 N.ar    1  UNL1       -0.2252
     17 C         141.8559  139.7146  166.5078 C.ar    1  UNL1        0.0884
     18 C         142.6784  139.4608  167.7362 C.ar    1  UNL1        0.0307
     19 C         142.0450  139.5443  169.0933 C.ar    1  UNL1        0.0592
     20 CL        142.8676  139.2905  170.3218 Cl      1  UNL1       -0.0822
     21 C         140.5891  139.8817  169.2221 C.ar    1  UNL1        0.0116
     22 C         139.7666  140.1355  167.9937 C.ar    1  UNL1        0.0071
     23 C         140.4000  140.0520  166.6366 C.ar    1  UNL1        0.0739
     24 C         139.5774  140.3058  165.4081 C.ar    1  UNL1        0.2634
     25 O         138.1215  140.6432  165.5368 O.2     1  UNL1       -0.2669
     26 C         140.1406  140.5923  160.8426 C.3     1  UNL1        0.1621
     27 N         139.3528  140.4995  159.5695 N.ar    1  UNL1       -0.2272
     28 C         139.3935  139.3659  158.5882 C.ar    1  UNL1        0.1973
     29 N         138.4517  139.6898  157.4664 N.ar    1  UNL1       -0.2007
     30 C         137.8290  141.0237  157.7545 C.ar    1  UNL1        0.2210
     31 N         138.3859  141.5242  159.0544 N.ar    1  UNL1       -0.1451
@<TRIPOS>BOND
     1    13    12    1
     2    13    14    1
     3    14    15   ar
     4    15    16   ar
     5    16    17   ar
     6    17    18   ar
     7    18    19   ar
     8    19    20    1
     9    19    21   ar
    10    21    22   ar
    11    22    23   ar
    12    23    24   ar
    13    24    25    2
    14    13     1    1
    15     1     2    1
    16     1    26    1
    17    26    27    1
    18    27    28   ar
    19    28    29   ar
    20    29    30   ar
    21    30    31   ar
    22     1     4    1
    23     4     5   ar
    24     5     6   ar
    25     6     7   ar
    26     7     8    1
    27     7     9   ar
    28     9    10   ar
    29    10    11    1
    30    24    14   ar
    31    31    27   ar
    32    10     4   ar
    33    23    17   ar
    34     2     3    1
@<TRIPOS>MOLECULE
*****
 31 34 0 0 0
SMALL
GASTEIGER

@<TRIPOS>ATOM
      1 C         141.0893  139.8731  167.2236 C.3     1  UNL1        0.1505
      2 O         142.2741  139.4798  168.0553 O.3     1  UNL1       -0.3788
      3 H         142.0819  139.6472  168.9913 H       1  UNL1        0.2108
      4 C         141.8234  139.4596  165.9825 C.ar    1  UNL1        0.0330
      5 C         141.4100  138.2211  165.2441 C.ar    1  UNL1        0.0026
      6 C         142.1441  137.8077  164.0031 C.ar    1  UNL1        0.0295
      7 C         143.2915  138.6327  163.5005 C.ar    1  UNL1        0.1424
      8 F         144.0256  138.2192  162.2594 F       1  UNL1       -0.2041
      9 C         143.7049  139.8711  164.2389 C.ar    1  UNL1        0.0590
     10 C         142.9709  140.2846  165.4799 C.ar    1  UNL1        0.1407
     11 F         143.3843  141.5231  166.2183 F       1  UNL1       -0.2043
     12 C         138.6254  139.4896  166.4942 C.3     1  UNL1        0.0275
     13 C         139.9046  140.2663  166.3918 C.3     1  UNL1        0.1202
     14 N         139.9991  141.4361  165.4578 N.ar    1  UNL1       -0.2773
     15 C         140.3756  142.7888  165.9855 C.ar    1  UNL1        0.1808
     16 N         140.4701  143.9586  165.0514 N.ar    1  UNL1       -0.2252
     17 C         140.1880  143.7758  163.5895 C.ar    1  UNL1        0.0884
     18 C         140.2825  144.9456  162.6554 C.ar    1  UNL1        0.0307
     19 C         140.0004  144.7627  161.1936 C.ar    1  UNL1        0.0592
     20 CL        140.0948  145.9326  160.2595 Cl      1  UNL1       -0.0822
     21 C         139.6238  143.4101  160.6659 C.ar    1  UNL1        0.0116
     22 C         139.5294  142.2402  161.6000 C.ar    1  UNL1        0.0071
     23 C         139.8115  142.4231  163.0618 C.ar    1  UNL1        0.0739
     24 C         139.7170  141.2532  163.9959 C.ar    1  UNL1        0.2634
     25 O         139.3405  139.9006  163.4682 O.2     1  UNL1       -0.2669
     26 C         140.3553  140.2865  168.4646 C.3     1  UNL1        0.1621
     27 N         141.0290  141.1646  169.4771 N.ar    1  UNL1       -0.2272
     28 C         140.8094  141.1288  170.9604 C.ar    1  UNL1        0.1973
     29 N         141.6853  142.1748  171.5840 N.ar    1  UNL1       -0.2007
     30 C         142.4462  142.8570  170.4861 C.ar    1  UNL1        0.2210
     31 N         142.0406  142.2327  169.1838 N.ar    1  UNL1       -0.1451
@<TRIPOS>BOND
     1    13    12    1
     2    13    14    1
     3    14    15   ar
     4    15    16   ar
     5    16    17   ar
     6    17    18   ar
     7    18    19   ar
     8    19    20    1
     9    19    21   ar
    10    21    22   ar
    11    22    23   ar
    12    23    24   ar
    13    24    25    2
    14    13     1    1
    15     1     2    1
    16     1    26    1
    17    26    27    1
    18    27    28   ar
    19    28    29   ar
    20    29    30   ar
    21    30    31   ar
    22     1     4    1
    23     4     5   ar
    24     5     6   ar
    25     6     7   ar
    26     7     8    1
    27     7     9   ar
    28     9    10   ar
    29    10    11    1
    30    24    14   ar
    31    31    27   ar
    32    10     4   ar
    33    23    17   ar
    34     2     3    1
@<TRIPOS>MOLECULE
*****
 31 34 0 0 0
SMALL
GASTEIGER

@<TRIPOS>ATOM
      1 C         142.1959  140.6665  162.0548 C.3     1  UNL1        0.1505
      2 O         142.1388  141.8131  161.0894 O.3     1  UNL1       -0.3788
      3 H         141.6699  141.5367  160.2865 H       1  UNL1        0.2108
      4 C         142.9448  141.5253  163.0304 C.ar    1  UNL1        0.0330
      5 C         142.2018  142.4969  163.8987 C.ar    1  UNL1        0.0026
      6 C         142.9507  143.3556  164.8742 C.ar    1  UNL1        0.0295
      7 C         144.4426  143.2428  164.9815 C.ar    1  UNL1        0.1424
      8 F         145.1915  144.1015  165.9570 F       1  UNL1       -0.2041
      9 C         145.1856  142.2712  164.1132 C.ar    1  UNL1        0.0590
     10 C         144.4367  141.4124  163.1376 C.ar    1  UNL1        0.1407
     11 F         145.1797  140.4408  162.2693 F       1  UNL1       -0.2043
     12 C         142.9326  138.2417  162.6272 C.3     1  UNL1        0.0275
     13 C         142.2530  139.5199  163.0202 C.3     1  UNL1        0.1202
     14 N         141.6306  139.6516  164.3786 N.ar    1  UNL1       -0.2773
     15 C         140.1728  139.9806  164.5070 C.ar    1  UNL1        0.1808
     16 N         139.5504  140.1122  165.8654 N.ar    1  UNL1       -0.2252
     17 C         140.3859  139.9148  167.0955 C.ar    1  UNL1        0.0884
     18 C         139.7635  140.0464  168.4539 C.ar    1  UNL1        0.0307
     19 C         140.5989  139.8489  169.6839 C.ar    1  UNL1        0.0592
     20 CL        139.9765  139.9805  171.0424 Cl      1  UNL1       -0.0822
     21 C         142.0567  139.5199  169.5556 C.ar    1  UNL1        0.0116
     22 C         142.6791  139.3883  168.1972 C.ar    1  UNL1        0.0071
     23 C         141.8437  139.5857  166.9671 C.ar    1  UNL1        0.0739
     24 C         142.4661  139.4541  165.6087 C.ar    1  UNL1        0.2634
     25 O         143.9239  139.1251  165.4803 O.2     1  UNL1       -0.2669
     26 C         141.4470  139.8078  161.0792 C.3     1  UNL1        0.1621
     27 N         139.9504  139.7308  161.1427 N.ar    1  UNL1       -0.2272
     28 C         139.1346  138.4743  161.2166 C.ar    1  UNL1        0.1973
     29 N         137.6867  138.8638  161.2631 N.ar    1  UNL1       -0.2007
     30 C         137.6077  140.3610  161.2179 C.ar    1  UNL1        0.2210
     31 N         139.0068  140.8969  161.1435 N.ar    1  UNL1       -0.1451
@<TRIPOS>BOND
     1    13    12    1
     2    13    14    1
     3    14    15   ar
     4    15    16   ar
     5    16    17   ar
     6    17    18   ar
     7    18    19   ar
     8    19    20    1
     9    19    21   ar
    10    21    22   ar
    11    22    23   ar
    12    23    24   ar
    13    24    25    2
    14    13     1    1
    15     1     2    1
    16     1    26    1
    17    26    27    1
    18    27    28   ar
    19    28    29   ar
    20    29    30   ar
    21    30    31   ar
    22     1     4    1
    23     4     5   ar
    24     5     6   ar
    25     6     7   ar
    26     7     8    1
    27     7     9   ar
    28     9    10   ar
    29    10    11    1
    30    24    14   ar
    31    31    27   ar
    32    10     4   ar
    33    23    17   ar
    34     2     3    1
@<TRIPOS>MOLECULE
*****
 31 34 0 0 0
SMALL
GASTEIGER

@<TRIPOS>ATOM
      1 C         141.5528  142.0897  166.8589 C.3     1  UNL1        0.1505
      2 O         142.4845  142.4297  167.9842 O.3     1  UNL1       -0.3788
      3 H         141.9711  142.5944  168.7906 H       1  UNL1        0.2108
      4 C         142.7243  141.9398  165.9342 C.ar    1  UNL1        0.0330
      5 C         143.3571  143.1544  165.3225 C.ar    1  UNL1        0.0026
      6 C         144.5286  143.0045  164.3978 C.ar    1  UNL1        0.0295
      7 C         145.0672  141.6401  164.0847 C.ar    1  UNL1        0.1424
      8 F         146.2387  141.4902  163.1600 F       1  UNL1       -0.2041
      9 C         144.4344  140.4255  164.6964 C.ar    1  UNL1        0.0590
     10 C         143.2629  140.5754  165.6212 C.ar    1  UNL1        0.1407
     11 F         142.6300  139.3607  166.2329 F       1  UNL1       -0.2043
     12 C         139.8123  140.4874  165.7850 C.3     1  UNL1        0.0275
     13 C         140.6210  141.7497  165.7337 C.3     1  UNL1        0.1202
     14 N         140.4979  142.6719  164.5571 N.ar    1  UNL1       -0.2773
     15 C         140.0727  144.0958  164.7615 C.ar    1  UNL1        0.1808
     16 N         139.9496  145.0180  163.5850 N.ar    1  UNL1       -0.2252
     17 C         140.2518  144.5164  162.2040 C.ar    1  UNL1        0.0884
     18 C         140.1288  145.4387  161.0274 C.ar    1  UNL1        0.0307
     19 C         140.4310  144.9370  159.6465 C.ar    1  UNL1        0.0592
     20 CL        140.3080  145.8593  158.4699 Cl      1  UNL1       -0.0822
     21 C         140.8563  143.5132  159.4421 C.ar    1  UNL1        0.0116
     22 C         140.9794  142.5910  160.6187 C.ar    1  UNL1        0.0071
     23 C         140.6771  143.0926  161.9996 C.ar    1  UNL1        0.0739
     24 C         140.8002  142.1703  163.1762 C.ar    1  UNL1        0.2634
     25 O         141.2255  140.7465  162.9718 O.2     1  UNL1       -0.2669
     26 C         140.3813  142.2396  167.7837 C.3     1  UNL1        0.1621
     27 N         140.5421  141.9622  169.2490 N.ar    1  UNL1       -0.2272
     28 C         140.0962  142.8543  170.3693 C.ar    1  UNL1        0.1973
     29 N         140.4557  142.1874  171.6640 N.ar    1  UNL1       -0.2007
     30 C         141.1238  140.8831  171.3438 C.ar    1  UNL1        0.2210
     31 N         141.1772  140.7439  169.8512 N.ar    1  UNL1       -0.1451
@<TRIPOS>BOND
     1    13    12    1
     2    13    14    1
     3    14    15   ar
     4    15    16   ar
     5    16    17   ar
     6    17    18   ar
     7    18    19   ar
     8    19    20    1
     9    19    21   ar
    10    21    22   ar
    11    22    23   ar
    12    23    24   ar
    13    24    25    2
    14    13     1    1
    15     1     2    1
    16     1    26    1
    17    26    27    1
    18    27    28   ar
    19    28    29   ar
    20    29    30   ar
    21    30    31   ar
    22     1     4    1
    23     4     5   ar
    24     5     6   ar
    25     6     7   ar
    26     7     8    1
    27     7     9   ar
    28     9    10   ar
    29    10    11    1
    30    24    14   ar
    31    31    27   ar
    32    10     4   ar
    33    23    17   ar
    34     2     3    1
@<TRIPOS>MOLECULE
*****
 31 34 0 0 0
SMALL
GASTEIGER

@<TRIPOS>ATOM
      1 C         142.3113  143.0734  160.9656 C.3     1  UNL1        0.1505
      2 O         143.6406  143.0055  160.2740 O.3     1  UNL1       -0.3788
      3 H         143.5043  142.8565  159.3253 H       1  UNL1        0.2108
      4 C         143.0049  143.2938  162.2772 C.ar    1  UNL1        0.0330
      5 C         143.1105  144.6775  162.8466 C.ar    1  UNL1        0.0026
      6 C         143.8041  144.8978  164.1582 C.ar    1  UNL1        0.0295
      7 C         144.3921  143.7345  164.9005 C.ar    1  UNL1        0.1424
      8 F         145.0857  143.9549  166.2121 F       1  UNL1       -0.2041
      9 C         144.2864  142.3509  164.3311 C.ar    1  UNL1        0.0590
     10 C         143.5928  142.1305  163.0195 C.ar    1  UNL1        0.1407
     11 F         143.4872  140.7467  162.4501 F       1  UNL1       -0.2043
     12 C         140.2126  144.4289  161.6787 C.3     1  UNL1        0.0275
     13 C         140.9819  143.1413  161.6572 C.3     1  UNL1        0.1202
     14 N         140.4219  141.9218  162.3272 N.ar    1  UNL1       -0.2773
     15 C         140.1577  140.6809  161.5268 C.ar    1  UNL1        0.1808
     16 N         139.5977  139.4614  162.1968 N.ar    1  UNL1       -0.2252
     17 C         139.3018  139.4826  163.6672 C.ar    1  UNL1        0.0884
     18 C         138.7417  138.2630  164.3373 C.ar    1  UNL1        0.0307
     19 C         138.4458  138.2843  165.8076 C.ar    1  UNL1        0.0592
     20 CL        137.8858  137.0647  166.4777 Cl      1  UNL1       -0.0822
     21 C         138.7100  139.5251  166.6079 C.ar    1  UNL1        0.0116
     22 C         139.2701  140.7447  165.9379 C.ar    1  UNL1        0.0071
     23 C         139.5659  140.7234  164.4676 C.ar    1  UNL1        0.0739
     24 C         140.1260  141.9430  163.7975 C.ar    1  UNL1        0.2634
     25 O         140.3902  143.1839  164.5978 O.2     1  UNL1       -0.2669
     26 C         141.6177  142.8530  159.6540 C.3     1  UNL1        0.1621
     27 N         141.4722  143.9868  158.6827 N.ar    1  UNL1       -0.2272
     28 C         140.2476  144.3067  157.8780 C.ar    1  UNL1        0.1973
     29 N         140.5444  145.5174  157.0435 N.ar    1  UNL1       -0.2007
     30 C         141.9526  145.9456  157.3325 C.ar    1  UNL1        0.2210
     31 N         142.5261  144.9997  158.3456 N.ar    1  UNL1       -0.1451
@<TRIPOS>BOND
     1    13    12    1
     2    13    14    1
     3    14    15   ar
     4    15    16   ar
     5    16    17   ar
     6    17    18   ar
     7    18    19   ar
     8    19    20    1
     9    19    21   ar
    10    21    22   ar
    11    22    23   ar
    12    23    24   ar
    13    24    25    2
    14    13     1    1
    15     1     2    1
    16     1    26    1
    17    26    27    1
    18    27    28   ar
    19    28    29   ar
    20    29    30   ar
    21    30    31   ar
    22     1     4    1
    23     4     5   ar
    24     5     6   ar
    25     6     7   ar
    26     7     8    1
    27     7     9   ar
    28     9    10   ar
    29    10    11    1
    30    24    14   ar
    31    31    27   ar
    32    10     4   ar
    33    23    17   ar
    34     2     3    1
@<TRIPOS>MOLECULE
*****
 31 34 0 0 0
SMALL
GASTEIGER

@<TRIPOS>ATOM
      1 C         141.2057  141.9818  166.9064 C.3     1  UNL1        0.1505
      2 O         140.3517  142.9359  167.6876 O.3     1  UNL1       -0.3788
      3 H         140.8332  143.2288  168.4771 H       1  UNL1        0.2108
      4 C         140.1140  141.8388  165.8876 C.ar    1  UNL1        0.0330
      5 C         139.2589  140.6065  165.8728 C.ar    1  UNL1        0.0026
      6 C         138.1672  140.4635  164.8540 C.ar    1  UNL1        0.0295
      7 C         137.9307  141.5527  163.8502 C.ar    1  UNL1        0.1424
      8 F         136.8390  141.4096  162.8315 F       1  UNL1       -0.2041
      9 C         138.7858  142.7849  163.8651 C.ar    1  UNL1        0.0590
     10 C         139.8775  142.9279  164.8838 C.ar    1  UNL1        0.1407
     11 F         140.7327  144.1602  164.8987 F       1  UNL1       -0.2043
     12 C         142.2697  139.6285  166.6234 C.3     1  UNL1        0.0275
     13 C         142.0597  141.0277  166.1251 C.3     1  UNL1        0.1202
     14 N         142.7038  141.4727  164.8456 N.ar    1  UNL1       -0.2773
     15 C         143.6520  142.6350  164.8480 C.ar    1  UNL1        0.1808
     16 N         144.2961  143.0801  163.5685 N.ar    1  UNL1       -0.2252
     17 C         143.9919  142.3628  162.2866 C.ar    1  UNL1        0.0884
     18 C         144.6360  142.8079  161.0071 C.ar    1  UNL1        0.0307
     19 C         144.3318  142.0906  159.7254 C.ar    1  UNL1        0.0592
     20 CL        144.9759  142.5356  158.4458 Cl      1  UNL1       -0.0822
     21 C         143.3836  140.9283  159.7231 C.ar    1  UNL1        0.0116
     22 C         142.7395  140.4833  161.0025 C.ar    1  UNL1        0.0071
     23 C         143.0437  141.2005  162.2843 C.ar    1  UNL1        0.0739
     24 C         142.3996  140.7555  163.5639 C.ar    1  UNL1        0.2634
     25 O         141.4514  139.5932  163.5616 O.2     1  UNL1       -0.2669
     26 C         142.2974  142.1248  167.9251 C.3     1  UNL1        0.1621
     27 N         141.9856  141.9749  169.3846 N.ar    1  UNL1       -0.2272
     28 C         142.5516  142.8067  170.4970 C.ar    1  UNL1        0.1973
     29 N         141.9688  142.3127  171.7880 N.ar    1  UNL1       -0.2007
     30 C         141.0426  141.1756  171.4733 C.ar    1  UNL1        0.2210
     31 N         141.0529  140.9668  169.9879 N.ar    1  UNL1       -0.1451
@<TRIPOS>BOND
     1    13    12    1
     2    13    14    1
     3    14    15   ar
     4    15    16   ar
     5    16    17   ar
     6    17    18   ar
     7    18    19   ar
     8    19    20    1
     9    19    21   ar
    10    21    22   ar
    11    22    23   ar
    12    23    24   ar
    13    24    25    2
    14    13     1    1
    15     1     2    1
    16     1    26    1
    17    26    27    1
    18    27    28   ar
    19    28    29   ar
    20    29    30   ar
    21    30    31   ar
    22     1     4    1
    23     4     5   ar
    24     5     6   ar
    25     6     7   ar
    26     7     8    1
    27     7     9   ar
    28     9    10   ar
    29    10    11    1
    30    24    14   ar
    31    31    27   ar
    32    10     4   ar
    33    23    17   ar
    34     2     3    1
