@<TRIPOS>MOLECULE
*****
 30 34 0 0 0
SMALL
GASTEIGER

@<TRIPOS>ATOM
      1 C         141.0631  141.7696  165.3707 C.ar    1  UNL1        0.0198
      2 C         139.8593  142.4682  164.8116 C.ar    1  UNL1        0.1006
      3 N         139.3886  142.1553  163.4222 N.ar    1  UNL1       -0.2246
      4 C         140.1217  141.1439  162.5919 C.ar    1  UNL1        0.1702
      5 N         139.8937  140.6326  161.2002 N.ar    1  UNL1       -0.2052
      6 C         140.9567  139.6180  160.8993 C.ar    1  UNL1        0.1647
      7 S         141.8416  139.5022  162.1049 S.2     1  UNL1       -0.0499
      8 C         141.3256  140.4453  163.1510 C.ar    1  UNL1        0.0679
      9 C         141.7963  140.7581  164.5404 C.ar    1  UNL1        0.0112
     10 C         141.0103  142.7382  169.2191 C.ar    1  UNL1        0.0958
     11 C         140.5396  142.4253  167.8296 C.ar    1  UNL1        0.0126
     12 C         141.5339  142.0825  166.7602 C.ar    1  UNL1        0.0023
     13 C         142.9991  142.0524  167.0802 C.ar    1  UNL1        0.0024
     14 C         143.4699  142.3653  168.4696 C.ar    1  UNL1        0.0303
     15 C         142.4755  142.7081  169.5391 C.ar    1  UNL1        0.1497
     16 F         142.9463  143.0210  170.9284 F       1  UNL1       -0.2035
     17 N         139.0216  143.4238  171.3579 N.1     1  UNL1       -0.1908
     18 C         140.0160  143.0810  170.2885 C.1     1  UNL1        0.1027
     19 N         141.1082  138.8533  159.6177 N.pl3   1  UNL1       -0.2880
     20 C         142.4481  138.3046  159.2257 C.3     1  UNL1        0.0940
     21 C         142.5997  137.5400  157.9442 C.3     1  UNL1        0.0375
     22 C         141.4114  137.3241  157.0546 C.3     1  UNL1        0.0609
     23 C         140.0715  137.8729  157.4466 C.3     1  UNL1        0.0375
     24 C         139.9200  138.6375  158.7281 C.3     1  UNL1        0.0940
     25 N         141.5629  136.5595  155.7730 N.3     1  UNL1       -0.2738
     26 C         140.8461  137.0171  154.5374 C.3     1  UNL1        0.0720
     27 C         140.9976  136.2526  153.2559 C.3     1  UNL1        0.0174
     28 C         141.8659  135.0303  153.2099 C.3     1  UNL1        0.0029
     29 C         142.5827  134.5727  154.4455 C.3     1  UNL1        0.0174
     30 C         142.4312  135.3373  155.7271 C.3     1  UNL1        0.0720
@<TRIPOS>BOND
     1    17    18    3
     2    18    10    1
     3    10    11   ar
     4    11    12   ar
     5    12     1    1
     6     1     2   ar
     7     2     3   ar
     8     3     4   ar
     9     4     5   ar
    10     5     6   ar
    11     6    19    1
    12    19    20    1
    13    20    21    1
    14    21    22    1
    15    22    25    1
    16    25    26    1
    17    26    27    1
    18    27    28    1
    19    28    29    1
    20    29    30    1
    21    22    23    1
    22    23    24    1
    23     6     7   ar
    24     7     8   ar
    25     8     9   ar
    26    12    13   ar
    27    13    14   ar
    28    14    15   ar
    29    15    16    1
    30    15    10   ar
    31     9     1   ar
    32     8     4   ar
    33    24    19    1
    34    30    25    1
@<TRIPOS>MOLECULE
*****
 30 34 0 0 0
SMALL
GASTEIGER

@<TRIPOS>ATOM
      1 C         139.5689  141.2176  166.0293 C.ar    1  UNL1        0.0198
      2 C         138.6238  140.2428  165.3918 C.ar    1  UNL1        0.1006
      3 N         138.2954  140.3612  163.9330 N.ar    1  UNL1       -0.2246
      4 C         138.9121  141.4545  163.1118 C.ar    1  UNL1        0.1702
      5 N         138.7783  141.8186  161.6627 N.ar    1  UNL1       -0.2052
      6 C         139.6407  143.0185  161.4048 C.ar    1  UNL1        0.1647
      7 S         140.3074  143.3959  162.6943 S.2     1  UNL1       -0.0499
      8 C         139.8571  142.4294  163.7493 C.ar    1  UNL1        0.0679
      9 C         140.1855  142.3109  165.2081 C.ar    1  UNL1        0.0112
     10 C         141.1981  141.9338  169.5767 C.ar    1  UNL1        0.0958
     11 C         140.8696  142.0522  168.1178 C.ar    1  UNL1        0.0126
     12 C         139.8973  141.0992  167.4882 C.ar    1  UNL1        0.0023
     13 C         139.2535  140.0278  168.3173 C.ar    1  UNL1        0.0024
     14 C         139.5819  139.9094  169.7761 C.ar    1  UNL1        0.0303
     15 C         140.5542  140.8624  170.4058 C.ar    1  UNL1        0.1497
     16 F         140.8826  140.7440  171.8646 F       1  UNL1       -0.2035
     17 N         143.1426  143.8398  170.8359 N.1     1  UNL1       -0.1908
     18 C         142.1703  142.8868  170.2063 C.1     1  UNL1        0.1027
     19 N         139.8071  143.7181  160.0883 N.pl3   1  UNL1       -0.2880
     20 C         139.3558  143.0517  158.8225 C.3     1  UNL1        0.0940
     21 C         139.5222  143.7512  157.5062 C.3     1  UNL1        0.0375
     22 C         140.1399  145.1172  157.4556 C.3     1  UNL1        0.0609
     23 C         140.5912  145.7836  158.7214 C.3     1  UNL1        0.0375
     24 C         140.4248  145.0840  160.0378 C.3     1  UNL1        0.0940
     25 N         140.3063  145.8168  156.1392 N.3     1  UNL1       -0.2738
     26 C         139.5222  147.0618  155.8471 C.3     1  UNL1        0.0720
     27 C         139.6886  147.7614  154.5308 C.3     1  UNL1        0.0174
     28 C         140.6391  147.2161  153.5065 C.3     1  UNL1        0.0029
     29 C         141.4232  145.9711  153.7986 C.3     1  UNL1        0.0174
     30 C         141.2568  145.2715  155.1149 C.3     1  UNL1        0.0720
@<TRIPOS>BOND
     1    17    18    3
     2    18    10    1
     3    10    11   ar
     4    11    12   ar
     5    12     1    1
     6     1     2   ar
     7     2     3   ar
     8     3     4   ar
     9     4     5   ar
    10     5     6   ar
    11     6    19    1
    12    19    20    1
    13    20    21    1
    14    21    22    1
    15    22    25    1
    16    25    26    1
    17    26    27    1
    18    27    28    1
    19    28    29    1
    20    29    30    1
    21    22    23    1
    22    23    24    1
    23     6     7   ar
    24     7     8   ar
    25     8     9   ar
    26    12    13   ar
    27    13    14   ar
    28    14    15   ar
    29    15    16    1
    30    15    10   ar
    31     9     1   ar
    32     8     4   ar
    33    24    19    1
    34    30    25    1
@<TRIPOS>MOLECULE
*****
 30 34 0 0 0
SMALL
GASTEIGER

@<TRIPOS>ATOM
      1 C         142.5259  142.2889  165.9482 C.ar    1  UNL1        0.0198
      2 C         143.9064  142.8724  165.8858 C.ar    1  UNL1        0.1006
      3 N         144.3981  143.5011  164.6158 N.ar    1  UNL1       -0.2246
      4 C         143.5095  143.5463  163.4082 C.ar    1  UNL1        0.1702
      5 N         143.7182  144.0966  162.0285 N.ar    1  UNL1       -0.2052
      6 C         142.4667  143.8532  161.2382 C.ar    1  UNL1        0.1647
      7 S         141.4846  143.1525  162.1295 S.2     1  UNL1       -0.0499
      8 C         142.1290  142.9628  163.4706 C.ar    1  UNL1        0.0679
      9 C         141.6373  142.3341  164.7406 C.ar    1  UNL1        0.0112
     10 C         140.7031  141.8276  169.4432 C.ar    1  UNL1        0.0958
     11 C         141.1950  142.4563  168.1732 C.ar    1  UNL1        0.0126
     12 C         142.0341  141.6602  167.2182 C.ar    1  UNL1        0.0023
     13 C         142.3815  140.2354  167.5332 C.ar    1  UNL1        0.0024
     14 C         141.8897  139.6067  168.8031 C.ar    1  UNL1        0.0303
     15 C         141.0505  140.4028  169.7582 C.ar    1  UNL1        0.1497
     16 F         140.5587  139.7740  171.0281 F       1  UNL1       -0.2035
     17 N         139.0248  143.4198  171.3531 N.1     1  UNL1       -0.1908
     18 C         139.8640  142.6237  170.3982 C.1     1  UNL1        0.1027
     19 N         142.2376  144.2423  159.8077 N.pl3   1  UNL1       -0.2880
     20 C         141.2517  145.3221  159.4729 C.3     1  UNL1        0.0940
     21 C         141.0225  145.7112  158.0425 C.3     1  UNL1        0.0375
     22 C         141.7792  145.0205  156.9469 C.3     1  UNL1        0.0609
     23 C         142.7650  143.9407  157.2818 C.3     1  UNL1        0.0375
     24 C         142.9942  143.5516  158.7122 C.3     1  UNL1        0.0940
     25 N         141.5500  145.4095  155.5165 N.3     1  UNL1       -0.2738
     26 C         140.6526  146.5658  155.1883 C.3     1  UNL1        0.0720
     27 C         140.4234  146.9548  153.7579 C.3     1  UNL1        0.0174
     28 C         141.0916  146.1877  152.6557 C.3     1  UNL1        0.0029
     29 C         141.9891  145.0314  152.9839 C.3     1  UNL1        0.0174
     30 C         142.2183  144.6423  154.4143 C.3     1  UNL1        0.0720
@<TRIPOS>BOND
     1    17    18    3
     2    18    10    1
     3    10    11   ar
     4    11    12   ar
     5    12     1    1
     6     1     2   ar
     7     2     3   ar
     8     3     4   ar
     9     4     5   ar
    10     5     6   ar
    11     6    19    1
    12    19    20    1
    13    20    21    1
    14    21    22    1
    15    22    25    1
    16    25    26    1
    17    26    27    1
    18    27    28    1
    19    28    29    1
    20    29    30    1
    21    22    23    1
    22    23    24    1
    23     6     7   ar
    24     7     8   ar
    25     8     9   ar
    26    12    13   ar
    27    13    14   ar
    28    14    15   ar
    29    15    16    1
    30    15    10   ar
    31     9     1   ar
    32     8     4   ar
    33    24    19    1
    34    30    25    1
@<TRIPOS>MOLECULE
*****
 30 34 0 0 0
SMALL
GASTEIGER

@<TRIPOS>ATOM
      1 C         142.2781  142.3240  166.0421 C.ar    1  UNL1        0.0198
      2 C         143.6802  142.8546  165.9931 C.ar    1  UNL1        0.1006
      3 N         144.2075  143.4643  164.7281 N.ar    1  UNL1       -0.2246
      4 C         143.3327  143.5435  163.5122 C.ar    1  UNL1        0.1702
      5 N         143.5752  144.0858  162.1348 N.ar    1  UNL1       -0.2052
      6 C         142.3229  143.8903  161.3326 C.ar    1  UNL1        0.1647
      7 S         141.3065  143.2272  162.2142 S.2     1  UNL1       -0.0499
      8 C         141.9306  143.0129  163.5613 C.ar    1  UNL1        0.0679
      9 C         141.4032  142.4032  164.8262 C.ar    1  UNL1        0.0112
     10 C         141.9219  139.9272  169.1852 C.ar    1  UNL1        0.0958
     11 C         142.4493  140.5370  167.9203 C.ar    1  UNL1        0.0126
     12 C         141.7507  141.7142  167.3071 C.ar    1  UNL1        0.0023
     13 C         140.5247  142.2817  167.9589 C.ar    1  UNL1        0.0024
     14 C         139.9973  141.6720  169.2238 C.ar    1  UNL1        0.0303
     15 C         140.6959  140.4948  169.8370 C.ar    1  UNL1        0.1497
     16 F         140.1685  139.8850  171.1019 F       1  UNL1       -0.2035
     17 N         143.3192  137.5728  170.4116 N.1     1  UNL1       -0.1908
     18 C         142.6206  138.7500  169.7984 C.1     1  UNL1        0.1027
     19 N         142.1223  144.2880  159.9002 N.pl3   1  UNL1       -0.2880
     20 C         142.9037  143.6067  158.8162 C.3     1  UNL1        0.0940
     21 C         142.7031  144.0044  157.3839 C.3     1  UNL1        0.0375
     22 C         141.7211  145.0834  157.0356 C.3     1  UNL1        0.0609
     23 C         140.9396  145.7647  158.1197 C.3     1  UNL1        0.0375
     24 C         141.1402  145.3670  159.5520 C.3     1  UNL1        0.0940
     25 N         141.5204  145.4811  155.6032 N.3     1  UNL1       -0.2738
     26 C         140.5846  146.6021  155.2602 C.3     1  UNL1        0.0720
     27 C         140.3839  146.9999  153.8279 C.3     1  UNL1        0.0174
     28 C         141.1190  146.2766  152.7387 C.3     1  UNL1        0.0029
     29 C         142.0548  145.1556  153.0817 C.3     1  UNL1        0.0174
     30 C         142.2555  144.7579  154.5140 C.3     1  UNL1        0.0720
@<TRIPOS>BOND
     1    17    18    3
     2    18    10    1
     3    10    11   ar
     4    11    12   ar
     5    12     1    1
     6     1     2   ar
     7     2     3   ar
     8     3     4   ar
     9     4     5   ar
    10     5     6   ar
    11     6    19    1
    12    19    20    1
    13    20    21    1
    14    21    22    1
    15    22    25    1
    16    25    26    1
    17    26    27    1
    18    27    28    1
    19    28    29    1
    20    29    30    1
    21    22    23    1
    22    23    24    1
    23     6     7   ar
    24     7     8   ar
    25     8     9   ar
    26    12    13   ar
    27    13    14   ar
    28    14    15   ar
    29    15    16    1
    30    15    10   ar
    31     9     1   ar
    32     8     4   ar
    33    24    19    1
    34    30    25    1
@<TRIPOS>MOLECULE
*****
 30 34 0 0 0
SMALL
GASTEIGER

@<TRIPOS>ATOM
      1 C         141.4291  142.3614  163.9319 C.ar    1  UNL1        0.0198
      2 C         140.8032  143.5675  163.2968 C.ar    1  UNL1        0.1006
      3 N         141.2956  144.0553  161.9666 N.ar    1  UNL1       -0.2246
      4 C         142.4140  143.3369  161.2715 C.ar    1  UNL1        0.1702
      5 N         143.1051  143.5830  159.9630 N.ar    1  UNL1       -0.2052
      6 C         144.1581  142.5290  159.7895 C.ar    1  UNL1        0.1647
      7 S         144.1178  141.6314  160.9907 S.2     1  UNL1       -0.0499
      8 C         143.0399  142.1307  161.9066 C.ar    1  UNL1        0.0679
      9 C         142.5474  141.6430  163.2368 C.ar    1  UNL1        0.0112
     10 C         140.3970  142.3214  167.7639 C.ar    1  UNL1        0.0958
     11 C         140.8895  142.8093  166.4336 C.ar    1  UNL1        0.0126
     12 C         140.9366  141.8736  165.2622 C.ar    1  UNL1        0.0023
     13 C         140.4913  140.4500  165.4210 C.ar    1  UNL1        0.0024
     14 C         139.9989  139.9622  166.7512 C.ar    1  UNL1        0.0303
     15 C         139.9517  140.8979  167.9227 C.ar    1  UNL1        0.1497
     16 F         139.4593  140.4101  169.2529 F       1  UNL1       -0.2035
     17 N         140.3028  144.1929  170.1066 N.1     1  UNL1       -0.1908
     18 C         140.3499  143.2572  168.9352 C.1     1  UNL1        0.1027
     19 N         145.0881  142.3958  158.6201 N.pl3   1  UNL1       -0.2880
     20 C         144.6817  141.5817  157.4276 C.3     1  UNL1        0.0940
     21 C         145.6117  141.4485  156.2583 C.3     1  UNL1        0.0375
     22 C         146.9480  142.1294  156.2815 C.3     1  UNL1        0.0609
     23 C         147.3544  142.9435  157.4740 C.3     1  UNL1        0.0375
     24 C         146.4244  143.0767  158.6434 C.3     1  UNL1        0.0940
     25 N         147.8781  141.9962  155.1121 N.3     1  UNL1       -0.2738
     26 C         149.3410  141.7565  155.3409 C.3     1  UNL1        0.0720
     27 C         150.2711  141.6233  154.1716 C.3     1  UNL1        0.0174
     28 C         149.7381  141.7299  152.7736 C.3     1  UNL1        0.0029
     29 C         148.2752  141.9696  152.5448 C.3     1  UNL1        0.0174
     30 C         147.3452  142.1028  153.7141 C.3     1  UNL1        0.0720
@<TRIPOS>BOND
     1    17    18    3
     2    18    10    1
     3    10    11   ar
     4    11    12   ar
     5    12     1    1
     6     1     2   ar
     7     2     3   ar
     8     3     4   ar
     9     4     5   ar
    10     5     6   ar
    11     6    19    1
    12    19    20    1
    13    20    21    1
    14    21    22    1
    15    22    25    1
    16    25    26    1
    17    26    27    1
    18    27    28    1
    19    28    29    1
    20    29    30    1
    21    22    23    1
    22    23    24    1
    23     6     7   ar
    24     7     8   ar
    25     8     9   ar
    26    12    13   ar
    27    13    14   ar
    28    14    15   ar
    29    15    16    1
    30    15    10   ar
    31     9     1   ar
    32     8     4   ar
    33    24    19    1
    34    30    25    1
@<TRIPOS>MOLECULE
*****
 30 34 0 0 0
SMALL
GASTEIGER

@<TRIPOS>ATOM
      1 C         140.3408  139.8134  166.5570 C.ar    1  UNL1        0.0198
      2 C         139.0189  139.1141  166.4414 C.ar    1  UNL1        0.1006
      3 N         138.5839  138.5457  165.1232 N.ar    1  UNL1       -0.2246
      4 C         139.4708  138.6767  163.9206 C.ar    1  UNL1        0.1702
      5 N         139.3104  138.2203  162.5007 N.ar    1  UNL1       -0.2052
      6 C         140.5332  138.6377  161.7388 C.ar    1  UNL1        0.1647
      7 S         141.4494  139.3519  162.6878 S.2     1  UNL1       -0.0499
      8 C         140.7927  139.3760  164.0362 C.ar    1  UNL1        0.0679
      9 C         141.2277  139.9444  165.3544 C.ar    1  UNL1        0.0112
     10 C         140.7826  142.3312  169.5928 C.ar    1  UNL1        0.0958
     11 C         140.3476  141.7628  168.2746 C.ar    1  UNL1        0.0126
     12 C         140.7759  140.3818  167.8752 C.ar    1  UNL1        0.0023
     13 C         141.6392  139.5692  168.7941 C.ar    1  UNL1        0.0024
     14 C         142.0743  140.1376  170.1123 C.ar    1  UNL1        0.0303
     15 C         141.6460  141.5186  170.5117 C.ar    1  UNL1        0.1497
     16 F         142.0810  142.0869  171.8299 F       1  UNL1       -0.2035
     17 N         139.9260  145.0931  170.3915 N.1     1  UNL1       -0.1908
     18 C         140.3543  143.7121  169.9921 C.1     1  UNL1        0.1027
     19 N         140.7942  138.3851  160.2833 N.pl3   1  UNL1       -0.2880
     20 C         142.1856  138.0812  159.8126 C.3     1  UNL1        0.0940
     21 C         142.4466  137.8286  158.3572 C.3     1  UNL1        0.0375
     22 C         141.3162  137.8800  157.3727 C.3     1  UNL1        0.0609
     23 C         139.9248  138.1840  157.8434 C.3     1  UNL1        0.0375
     24 C         139.6638  138.4365  159.2988 C.3     1  UNL1        0.0940
     25 N         141.5771  137.6275  155.9172 N.3     1  UNL1       -0.2738
     26 C         141.2744  136.2838  155.3231 C.3     1  UNL1        0.0720
     27 C         141.5353  136.0313  153.8678 C.3     1  UNL1        0.0174
     28 C         142.0989  137.1223  153.0065 C.3     1  UNL1        0.0029
     29 C         142.4017  138.4660  153.6006 C.3     1  UNL1        0.0174
     30 C         142.1408  138.7186  155.0560 C.3     1  UNL1        0.0720
@<TRIPOS>BOND
     1    17    18    3
     2    18    10    1
     3    10    11   ar
     4    11    12   ar
     5    12     1    1
     6     1     2   ar
     7     2     3   ar
     8     3     4   ar
     9     4     5   ar
    10     5     6   ar
    11     6    19    1
    12    19    20    1
    13    20    21    1
    14    21    22    1
    15    22    25    1
    16    25    26    1
    17    26    27    1
    18    27    28    1
    19    28    29    1
    20    29    30    1
    21    22    23    1
    22    23    24    1
    23     6     7   ar
    24     7     8   ar
    25     8     9   ar
    26    12    13   ar
    27    13    14   ar
    28    14    15   ar
    29    15    16    1
    30    15    10   ar
    31     9     1   ar
    32     8     4   ar
    33    24    19    1
    34    30    25    1
@<TRIPOS>MOLECULE
*****
 30 34 0 0 0
SMALL
GASTEIGER

@<TRIPOS>ATOM
      1 C         139.9335  145.0356  157.4782 C.ar    1  UNL1        0.0198
      2 C         139.4022  143.6421  157.3171 C.ar    1  UNL1        0.1006
      3 N         139.3664  142.7125  158.4937 N.ar    1  UNL1       -0.2246
      4 C         139.8617  143.1763  159.8315 C.ar    1  UNL1        0.1702
      5 N         139.9499  142.4899  161.1623 N.ar    1  UNL1       -0.2052
      6 C         140.5356  143.4592  162.1459 C.ar    1  UNL1        0.1647
      7 S         140.8094  144.7446  161.4229 S.2     1  UNL1       -0.0499
      8 C         140.3930  144.5698  159.9925 C.ar    1  UNL1        0.0679
      9 C         140.4289  145.4994  158.8159 C.ar    1  UNL1        0.0112
     10 C         139.4006  148.2635  155.2317 C.ar    1  UNL1        0.0958
     11 C         139.3647  147.3338  156.4083 C.ar    1  UNL1        0.0126
     12 C         139.9694  145.9653  156.3016 C.ar    1  UNL1        0.0023
     13 C         140.6099  145.5263  155.0182 C.ar    1  UNL1        0.0024
     14 C         140.6458  146.4560  153.8416 C.ar    1  UNL1        0.0303
     15 C         140.0412  147.8246  153.9483 C.ar    1  UNL1        0.1497
     16 F         140.0771  148.7542  152.7717 F       1  UNL1       -0.2035
     17 N         138.1914  151.0006  155.4452 N.1     1  UNL1       -0.1908
     18 C         138.7960  149.6321  155.3384 C.1     1  UNL1        0.1027
     19 N         140.8009  143.1903  163.5976 N.pl3   1  UNL1       -0.2880
     20 C         139.7182  143.4126  164.6116 C.3     1  UNL1        0.0940
     21 C         139.9834  143.1437  166.0632 C.3     1  UNL1        0.0375
     22 C         141.3314  142.6525  166.5009 C.3     1  UNL1        0.0609
     23 C         142.4141  142.4301  165.4868 C.3     1  UNL1        0.0375
     24 C         142.1489  142.6990  164.0352 C.3     1  UNL1        0.0940
     25 N         141.5967  142.3836  167.9526 N.3     1  UNL1       -0.2738
     26 C         140.4651  142.3982  168.9370 C.3     1  UNL1        0.0720
     27 C         140.7303  142.1293  170.3887 C.3     1  UNL1        0.0174
     28 C         142.1272  141.8458  170.8558 C.3     1  UNL1        0.0029
     29 C         143.2588  141.8312  169.8714 C.3     1  UNL1        0.0174
     30 C         142.9936  142.1001  168.4197 C.3     1  UNL1        0.0720
@<TRIPOS>BOND
     1    17    18    3
     2    18    10    1
     3    10    11   ar
     4    11    12   ar
     5    12     1    1
     6     1     2   ar
     7     2     3   ar
     8     3     4   ar
     9     4     5   ar
    10     5     6   ar
    11     6    19    1
    12    19    20    1
    13    20    21    1
    14    21    22    1
    15    22    25    1
    16    25    26    1
    17    26    27    1
    18    27    28    1
    19    28    29    1
    20    29    30    1
    21    22    23    1
    22    23    24    1
    23     6     7   ar
    24     7     8   ar
    25     8     9   ar
    26    12    13   ar
    27    13    14   ar
    28    14    15   ar
    29    15    16    1
    30    15    10   ar
    31     9     1   ar
    32     8     4   ar
    33    24    19    1
    34    30    25    1
@<TRIPOS>MOLECULE
*****
 30 34 0 0 0
SMALL
GASTEIGER

@<TRIPOS>ATOM
      1 C         140.4593  141.4907  164.6638 C.ar    1  UNL1        0.0198
      2 C         139.3034  141.7913  163.7564 C.ar    1  UNL1        0.1006
      3 N         139.5279  141.9438  162.2812 N.ar    1  UNL1       -0.2246
      4 C         140.9084  141.7957  161.7134 C.ar    1  UNL1        0.1702
      5 N         141.4324  141.8910  160.3111 N.ar    1  UNL1       -0.2052
      6 C         142.9122  141.6492  160.3519 C.ar    1  UNL1        0.1647
      7 S         143.3027  141.4045  161.7793 S.2     1  UNL1       -0.0499
      8 C         142.0643  141.4950  162.6208 C.ar    1  UNL1        0.0679
      9 C         141.8398  141.3425  164.0960 C.ar    1  UNL1        0.0112
     10 C         140.1611  142.3700  168.5224 C.ar    1  UNL1        0.0958
     11 C         140.3855  142.5225  167.0471 C.ar    1  UNL1        0.0126
     12 C         140.2349  141.3381  166.1391 C.ar    1  UNL1        0.0023
     13 C         139.8597  140.0012  166.7064 C.ar    1  UNL1        0.0024
     14 C         139.6352  139.8486  168.1816 C.ar    1  UNL1        0.0303
     15 C         139.7859  141.0331  169.0896 C.ar    1  UNL1        0.1497
     16 F         139.5614  140.8805  170.5648 F       1  UNL1       -0.2035
     17 N         140.4624  144.7388  170.3383 N.1     1  UNL1       -0.1908
     18 C         140.3117  143.5544  169.4303 C.1     1  UNL1        0.1027
     19 N         143.8389  141.6517  159.1723 N.pl3   1  UNL1       -0.2880
     20 C         144.9241  142.6825  159.0733 C.3     1  UNL1        0.0940
     21 C         145.8508  142.6850  157.8938 C.3     1  UNL1        0.0375
     22 C         145.6922  141.6568  156.8133 C.3     1  UNL1        0.0609
     23 C         144.6069  140.6261  156.9122 C.3     1  UNL1        0.0375
     24 C         143.6803  140.6235  158.0917 C.3     1  UNL1        0.0940
     25 N         146.6188  141.6593  155.6337 N.3     1  UNL1       -0.2738
     26 C         146.0985  141.3117  154.2704 C.3     1  UNL1        0.0720
     27 C         147.0251  141.3142  153.0909 C.3     1  UNL1        0.0174
     28 C         148.4720  141.6643  153.2746 C.3     1  UNL1        0.0029
     29 C         148.9923  142.0119  154.6378 C.3     1  UNL1        0.0174
     30 C         148.0658  142.0094  155.8174 C.3     1  UNL1        0.0720
@<TRIPOS>BOND
     1    17    18    3
     2    18    10    1
     3    10    11   ar
     4    11    12   ar
     5    12     1    1
     6     1     2   ar
     7     2     3   ar
     8     3     4   ar
     9     4     5   ar
    10     5     6   ar
    11     6    19    1
    12    19    20    1
    13    20    21    1
    14    21    22    1
    15    22    25    1
    16    25    26    1
    17    26    27    1
    18    27    28    1
    19    28    29    1
    20    29    30    1
    21    22    23    1
    22    23    24    1
    23     6     7   ar
    24     7     8   ar
    25     8     9   ar
    26    12    13   ar
    27    13    14   ar
    28    14    15   ar
    29    15    16    1
    30    15    10   ar
    31     9     1   ar
    32     8     4   ar
    33    24    19    1
    34    30    25    1
@<TRIPOS>MOLECULE
*****
 30 34 0 0 0
SMALL
GASTEIGER

@<TRIPOS>ATOM
      1 C         140.5578  141.2565  163.6315 C.ar    1  UNL1        0.0198
      2 C         139.5273  141.8387  162.7101 C.ar    1  UNL1        0.1006
      3 N         139.8797  142.1351  161.2825 N.ar    1  UNL1       -0.2246
      4 C         141.2625  141.8494  160.7764 C.ar    1  UNL1        0.1702
      5 N         141.8968  142.0353  159.4298 N.ar    1  UNL1       -0.2052
      6 C         143.3193  141.5679  159.5191 C.ar    1  UNL1        0.1647
      7 S         143.5642  141.0933  160.9208 S.2     1  UNL1       -0.0499
      8 C         142.2930  141.2673  161.6978 C.ar    1  UNL1        0.0679
      9 C         141.9407  140.9708  163.1254 C.ar    1  UNL1        0.0112
     10 C         138.8192  139.6242  166.8038 C.ar    1  UNL1        0.0958
     11 C         139.1715  139.9207  165.3761 C.ar    1  UNL1        0.0126
     12 C         140.2056  140.9600  165.0591 C.ar    1  UNL1        0.0023
     13 C         140.8874  141.7029  166.1697 C.ar    1  UNL1        0.0024
     14 C         140.5351  141.4064  167.5972 C.ar    1  UNL1        0.0303
     15 C         139.5010  140.3670  167.9143 C.ar    1  UNL1        0.1497
     16 F         139.1488  140.0706  169.3419 F       1  UNL1       -0.2035
     17 N         136.7511  137.5456  167.4378 N.1     1  UNL1       -0.1908
     18 C         137.7852  138.5849  167.1208 C.1     1  UNL1        0.1027
     19 N         144.3211  141.5742  158.4026 N.pl3   1  UNL1       -0.2880
     20 C         145.4423  142.5706  158.4066 C.3     1  UNL1        0.0940
     21 C         146.4441  142.5769  157.2902 C.3     1  UNL1        0.0375
     22 C         146.3248  141.5867  156.1699 C.3     1  UNL1        0.0609
     23 C         145.2036  140.5902  156.1660 C.3     1  UNL1        0.0375
     24 C         144.2018  140.5839  157.2823 C.3     1  UNL1        0.0940
     25 N         147.3266  141.5929  155.0535 N.3     1  UNL1       -0.2738
     26 C         146.8893  141.2867  153.6517 C.3     1  UNL1        0.0720
     27 C         147.8910  141.2929  152.5353 C.3     1  UNL1        0.0174
     28 C         149.3301  141.6053  152.8207 C.3     1  UNL1        0.0029
     29 C         149.7674  141.9114  154.2225 C.3     1  UNL1        0.0174
     30 C         148.7657  141.9052  155.3389 C.3     1  UNL1        0.0720
@<TRIPOS>BOND
     1    17    18    3
     2    18    10    1
     3    10    11   ar
     4    11    12   ar
     5    12     1    1
     6     1     2   ar
     7     2     3   ar
     8     3     4   ar
     9     4     5   ar
    10     5     6   ar
    11     6    19    1
    12    19    20    1
    13    20    21    1
    14    21    22    1
    15    22    25    1
    16    25    26    1
    17    26    27    1
    18    27    28    1
    19    28    29    1
    20    29    30    1
    21    22    23    1
    22    23    24    1
    23     6     7   ar
    24     7     8   ar
    25     8     9   ar
    26    12    13   ar
    27    13    14   ar
    28    14    15   ar
    29    15    16    1
    30    15    10   ar
    31     9     1   ar
    32     8     4   ar
    33    24    19    1
    34    30    25    1
