@<TRIPOS>MOLECULE
*****
 44 49 0 0 0
SMALL
GASTEIGER

@<TRIPOS>ATOM
      1 C         138.7483  139.3732  161.1411 C.ar    1  UNL1        0.0479
      2 C         139.6216  138.3885  160.4217 C.ar    1  UNL1        0.0146
      3 C         139.7475  138.4489  158.9282 C.ar    1  UNL1        0.0041
      4 C         139.0001  139.4940  158.1542 C.ar    1  UNL1        0.0348
      5 C         138.1267  140.4787  158.8737 C.ar    1  UNL1        0.0041
      6 C         138.0009  140.4183  160.3671 C.ar    1  UNL1        0.0146
      7 N         138.3705  139.1922  165.6216 N.3     1  UNL1       -0.2698
      8 C         137.8103  140.3622  164.8684 C.3     1  UNL1        0.0938
      9 C         137.9362  140.4225  163.3748 C.3     1  UNL1        0.1081
     10 N         138.6224  139.3128  162.6346 N.pl3   1  UNL1       -0.3046
     11 C         139.1826  138.1429  163.3879 C.3     1  UNL1        0.1081
     12 C         139.0566  138.0826  164.8814 C.3     1  UNL1        0.0938
     13 C         138.2446  139.1319  167.1151 C.3     1  UNL1        0.0722
     14 C         139.3468  139.6632  167.9828 C.3     1  UNL1        0.0177
     15 C         139.9238  141.0215  167.7146 C.3     1  UNL1        0.0061
     16 C         141.3417  141.1544  167.2436 C.3     1  UNL1        0.0277
     17 C         140.4952  142.9476  162.7957 C.2     1  UNL1        0.0507
     18 C         141.0785  142.0989  161.7051 C.2     1  UNL1        0.0078
     19 C         141.8278  140.8459  162.0494 C.2     1  UNL1        0.0191
     20 C         141.9939  140.4417  163.4843 C.2     1  UNL1        0.0774
     21 N         142.6768  139.2695  164.1243 N.2     1  UNL1       -0.2445
     22 C         142.5156  139.3938  165.6105 C.2     1  UNL1        0.0943
     23 C         141.7331  140.6428  165.8890 C.2     1  UNL1       -0.0052
     24 C         141.4107  141.2905  164.5749 C.2     1  UNL1       -0.0019
     25 C         140.6613  142.5434  164.2306 C.3     1  UNL1        0.0643
     26 N         138.9965  145.4535  162.1070 N.1     1  UNL1       -0.1911
     27 C         139.7459  144.2006  162.4513 C.1     1  UNL1        0.0964
     28 C         139.1260  139.5543  156.6607 C.2     1  UNL1        0.1730
     29 O         138.2061  138.7431  155.7972 O.2     1  UNL1       -0.2913
     30 C         140.1718  140.4259  156.0308 C.3     1  UNL1        0.0692
     31 C         140.4562  141.7852  156.5976 C.3     1  UNL1        0.0082
     32 C         141.6141  141.9814  157.5306 C.3     1  UNL1        0.0032
     33 C         141.9365  143.3519  158.0482 C.3     1  UNL1        0.0174
     34 C         143.0944  143.5481  158.9812 C.3     1  UNL1        0.0724
     35 N         143.9302  142.3737  159.3967 N.3     1  UNL1       -0.2690
     36 C         143.6079  141.0032  158.8792 C.3     1  UNL1        0.0724
     37 C         142.4498  140.8071  157.9461 C.3     1  UNL1        0.0174
     38 C         145.0882  142.5699  160.3298 C.3     1  UNL1        0.0991
     39 C         144.8429  142.7986  161.7918 C.ar    1  UNL1       -0.0061
     40 C         144.0891  144.0138  162.2446 C.ar    1  UNL1       -0.0029
     41 C         143.8438  144.2426  163.7067 C.ar    1  UNL1       -0.0003
     42 C         144.3524  143.2562  164.7158 C.ar    1  UNL1       -0.0000
     43 C         145.1063  142.0410  164.2629 C.ar    1  UNL1       -0.0003
     44 C         145.3515  141.8123  162.8009 C.ar    1  UNL1       -0.0029
@<TRIPOS>BOND
     1    26    27    3
     2    27    17    1
     3    17    18    2
     4    18    19    1
     5    19    20    2
     6    20    21    1
     7    21    22    2
     8    22    23    1
     9    23    16    1
    10    16    15    1
    11    15    14    1
    12    14    13    1
    13    13     7    1
    14     7     8    1
    15     8     9    1
    16     9    10    1
    17    10     1    1
    18     1     2   ar
    19     2     3   ar
    20     3     4   ar
    21     4    28    1
    22    28    29    2
    23    28    30    1
    24    30    31    1
    25    31    32    1
    26    32    33    1
    27    33    34    1
    28    34    35    1
    29    35    38    1
    30    38    39    1
    31    39    40   ar
    32    40    41   ar
    33    41    42   ar
    34    42    43   ar
    35    43    44   ar
    36    35    36    1
    37    36    37    1
    38     4     5   ar
    39     5     6   ar
    40    10    11    1
    41    11    12    1
    42    23    24    2
    43    24    25    1
    44    25    17    1
    45    24    20    1
    46    12     7    1
    47     6     1   ar
    48    37    32    1
    49    44    39   ar
@<TRIPOS>MOLECULE
*****
 44 49 0 0 0
SMALL
GASTEIGER

@<TRIPOS>ATOM
      1 C         141.2713  143.5186  164.2858 C.ar    1  UNL1        0.0479
      2 C         142.4416  142.9273  165.0144 C.ar    1  UNL1        0.0146
      3 C         142.2986  142.5077  166.4474 C.ar    1  UNL1        0.0041
      4 C         140.9855  142.6793  167.1517 C.ar    1  UNL1        0.0348
      5 C         139.8152  143.2706  166.4231 C.ar    1  UNL1        0.0041
      6 C         139.9582  143.6902  164.9902 C.ar    1  UNL1        0.0146
      7 N         141.6999  144.7777  159.9868 N.3     1  UNL1       -0.2698
      8 C         140.4655  145.1443  160.7562 C.3     1  UNL1        0.0938
      9 C         140.3227  144.7246  162.1892 C.3     1  UNL1        0.1081
     10 N         141.4142  143.9383  162.8528 N.pl3   1  UNL1       -0.3046
     11 C         142.6486  143.5717  162.0834 C.3     1  UNL1        0.1081
     12 C         142.7914  143.9914  160.6504 C.3     1  UNL1        0.0938
     13 C         141.8428  145.1974  158.5538 C.3     1  UNL1        0.0722
     14 C         142.3673  144.2274  157.5370 C.3     1  UNL1        0.0177
     15 C         142.0838  142.7617  157.6825 C.3     1  UNL1        0.0061
     16 C         143.1973  141.7655  157.5496 C.3     1  UNL1        0.0277
     17 C         144.0097  139.4589  161.7610 C.2     1  UNL1        0.0507
     18 C         143.6367  138.0069  161.7109 C.2     1  UNL1        0.0078
     19 C         143.0791  137.4189  160.4486 C.2     1  UNL1        0.0191
     20 C         142.8944  138.2829  159.2365 C.2     1  UNL1        0.0774
     21 N         142.3716  137.9858  157.8623 N.2     1  UNL1       -0.2445
     22 C         142.4214  139.2543  157.0631 C.2     1  UNL1        0.0943
     23 C         142.9750  140.3353  157.9433 C.2     1  UNL1       -0.0052
     24 C         143.2674  139.7349  159.2866 C.2     1  UNL1       -0.0019
     25 C         143.8250  140.3229  160.5489 C.3     1  UNL1        0.0643
     26 N         145.1249  140.6349  164.2855 N.1     1  UNL1       -0.1911
     27 C         144.5673  140.0469  163.0233 C.1     1  UNL1        0.0964
     28 C         140.8426  142.2596  168.5847 C.2     1  UNL1        0.1730
     29 O         140.8879  143.2882  169.6755 O.2     1  UNL1       -0.2913
     30 C         140.6543  140.8113  168.9269 C.3     1  UNL1        0.0692
     31 C         139.5251  140.0367  168.3148 C.3     1  UNL1        0.0082
     32 C         139.6442  139.5196  166.9118 C.3     1  UNL1        0.0032
     33 C         140.9902  139.1564  166.3581 C.3     1  UNL1        0.0174
     34 C         141.1093  138.6392  164.9551 C.3     1  UNL1        0.0724
     35 N         139.8825  138.4853  164.1058 N.3     1  UNL1       -0.2690
     36 C         138.5366  138.8485  164.6594 C.3     1  UNL1        0.0724
     37 C         138.4175  139.3656  166.0625 C.3     1  UNL1        0.0174
     38 C         140.0017  137.9682  162.7028 C.3     1  UNL1        0.0991
     39 C         139.8712  138.9100  161.5427 C.ar    1  UNL1       -0.0061
     40 C         140.2479  140.3532  161.7022 C.ar    1  UNL1       -0.0029
     41 C         140.1174  141.2950  160.5421 C.ar    1  UNL1       -0.0003
     42 C         139.6103  140.7938  159.2225 C.ar    1  UNL1       -0.0000
     43 C         139.2336  139.3506  159.0629 C.ar    1  UNL1       -0.0003
     44 C         139.3641  138.4088  160.2230 C.ar    1  UNL1       -0.0029
@<TRIPOS>BOND
     1    26    27    3
     2    27    17    1
     3    17    18    2
     4    18    19    1
     5    19    20    2
     6    20    21    1
     7    21    22    2
     8    22    23    1
     9    23    16    1
    10    16    15    1
    11    15    14    1
    12    14    13    1
    13    13     7    1
    14     7     8    1
    15     8     9    1
    16     9    10    1
    17    10     1    1
    18     1     2   ar
    19     2     3   ar
    20     3     4   ar
    21     4    28    1
    22    28    29    2
    23    28    30    1
    24    30    31    1
    25    31    32    1
    26    32    33    1
    27    33    34    1
    28    34    35    1
    29    35    38    1
    30    38    39    1
    31    39    40   ar
    32    40    41   ar
    33    41    42   ar
    34    42    43   ar
    35    43    44   ar
    36    35    36    1
    37    36    37    1
    38     4     5   ar
    39     5     6   ar
    40    10    11    1
    41    11    12    1
    42    23    24    2
    43    24    25    1
    44    25    17    1
    45    24    20    1
    46    12     7    1
    47     6     1   ar
    48    37    32    1
    49    44    39   ar
@<TRIPOS>MOLECULE
*****
 44 49 0 0 0
SMALL
GASTEIGER

@<TRIPOS>ATOM
      1 C         139.0587  140.7511  166.0433 C.ar    1  UNL1        0.0479
      2 C         139.6377  142.0642  166.4801 C.ar    1  UNL1        0.0146
      3 C         140.0081  142.2793  167.9176 C.ar    1  UNL1        0.0041
      4 C         139.7997  141.1815  168.9183 C.ar    1  UNL1        0.0348
      5 C         139.2207  139.8685  168.4815 C.ar    1  UNL1        0.0041
      6 C         138.8503  139.6534  167.0440 C.ar    1  UNL1        0.0146
      7 N         137.9473  140.1053  161.7308 N.3     1  UNL1       -0.2698
      8 C         138.8159  139.1081  162.4388 C.3     1  UNL1        0.0938
      9 C         139.1863  139.3235  163.8764 C.3     1  UNL1        0.1081
     10 N         138.6883  140.5359  164.6058 N.pl3   1  UNL1       -0.3046
     11 C         137.8197  141.5330  163.8977 C.3     1  UNL1        0.1081
     12 C         137.4493  141.3176  162.4602 C.3     1  UNL1        0.0938
     13 C         137.5768  139.8900  160.2933 C.3     1  UNL1        0.0722
     14 C         138.5113  140.3272  159.2044 C.3     1  UNL1        0.0177
     15 C         138.4315  141.7240  158.6636 C.3     1  UNL1        0.0061
     16 C         138.9320  142.8757  159.4840 C.3     1  UNL1        0.0277
     17 C         142.8875  140.6051  161.1912 C.2     1  UNL1        0.0507
     18 C         144.1554  141.3574  160.9147 C.2     1  UNL1        0.0078
     19 C         144.1069  142.6650  160.1815 C.2     1  UNL1        0.0191
     20 C         142.7906  143.2205  159.7248 C.2     1  UNL1        0.0774
     21 N         142.4329  144.4760  158.9860 N.2     1  UNL1       -0.2445
     22 C         140.9439  144.4996  158.8058 C.2     1  UNL1        0.0943
     23 C         140.3813  143.2588  159.4333 C.2     1  UNL1       -0.0052
     24 C         141.5227  142.4682  160.0013 C.2     1  UNL1       -0.0019
     25 C         141.5711  141.1605  160.7345 C.3     1  UNL1        0.0643
     26 N         142.9844  137.9897  162.6576 N.1     1  UNL1       -0.1911
     27 C         142.9360  139.2974  161.9244 C.1     1  UNL1        0.0964
     28 C         140.1702  141.3968  170.3558 C.2     1  UNL1        0.1730
     29 O         139.5334  142.5084  171.1360 O.2     1  UNL1       -0.2913
     30 C         141.1774  140.5004  171.0131 C.3     1  UNL1        0.0692
     31 C         142.5824  140.4415  170.4912 C.3     1  UNL1        0.0082
     32 C         142.8616  140.7580  169.0518 C.3     1  UNL1        0.0032
     33 C         143.2838  142.1420  168.6564 C.3     1  UNL1        0.0174
     34 C         143.5631  142.4585  167.2170 C.3     1  UNL1        0.0724
     35 N         143.4201  141.3909  166.1729 N.3     1  UNL1       -0.2690
     36 C         142.9979  140.0069  166.5683 C.3     1  UNL1        0.0724
     37 C         142.7187  139.6905  168.0078 C.3     1  UNL1        0.0174
     38 C         143.6993  141.7074  164.7335 C.3     1  UNL1        0.0991
     39 C         142.9881  142.8460  164.0644 C.ar    1  UNL1       -0.0061
     40 C         141.5024  142.7893  163.8658 C.ar    1  UNL1       -0.0029
     41 C         140.7912  143.9279  163.1966 C.ar    1  UNL1       -0.0003
     42 C         141.5658  145.1232  162.7260 C.ar    1  UNL1       -0.0000
     43 C         143.0515  145.1799  162.9246 C.ar    1  UNL1       -0.0003
     44 C         143.7626  144.0413  163.5938 C.ar    1  UNL1       -0.0029
@<TRIPOS>BOND
     1    26    27    3
     2    27    17    1
     3    17    18    2
     4    18    19    1
     5    19    20    2
     6    20    21    1
     7    21    22    2
     8    22    23    1
     9    23    16    1
    10    16    15    1
    11    15    14    1
    12    14    13    1
    13    13     7    1
    14     7     8    1
    15     8     9    1
    16     9    10    1
    17    10     1    1
    18     1     2   ar
    19     2     3   ar
    20     3     4   ar
    21     4    28    1
    22    28    29    2
    23    28    30    1
    24    30    31    1
    25    31    32    1
    26    32    33    1
    27    33    34    1
    28    34    35    1
    29    35    38    1
    30    38    39    1
    31    39    40   ar
    32    40    41   ar
    33    41    42   ar
    34    42    43   ar
    35    43    44   ar
    36    35    36    1
    37    36    37    1
    38     4     5   ar
    39     5     6   ar
    40    10    11    1
    41    11    12    1
    42    23    24    2
    43    24    25    1
    44    25    17    1
    45    24    20    1
    46    12     7    1
    47     6     1   ar
    48    37    32    1
    49    44    39   ar
@<TRIPOS>MOLECULE
*****
 44 49 0 0 0
SMALL
GASTEIGER

@<TRIPOS>ATOM
      1 C         138.8027  140.4240  164.6328 C.ar    1  UNL1        0.0479
      2 C         139.4125  141.6011  165.3344 C.ar    1  UNL1        0.0146
      3 C         139.6920  141.5344  166.8066 C.ar    1  UNL1        0.0041
      4 C         139.3616  140.2906  167.5772 C.ar    1  UNL1        0.0348
      5 C         138.7518  139.1134  166.8755 C.ar    1  UNL1        0.0041
      6 C         138.4723  139.1801  165.4033 C.ar    1  UNL1        0.0146
      7 N         137.9641  140.6240  160.2161 N.3     1  UNL1       -0.2698
      8 C         138.5098  141.8245  160.9310 C.3     1  UNL1        0.0938
      9 C         138.7892  141.7577  162.4033 C.3     1  UNL1        0.1081
     10 N         138.5231  140.4906  163.1606 N.pl3   1  UNL1       -0.3046
     11 C         137.9775  139.2901  162.4456 C.3     1  UNL1        0.1081
     12 C         137.6980  139.3568  160.9734 C.3     1  UNL1        0.0938
     13 C         137.6846  140.6906  158.7439 C.3     1  UNL1        0.0722
     14 C         138.6537  140.0908  157.7686 C.3     1  UNL1        0.0177
     15 C         139.6650  140.9618  157.0842 C.3     1  UNL1        0.0061
     16 C         140.4211  141.9924  157.8692 C.3     1  UNL1        0.0277
     17 C         142.9110  143.6298  161.7209 C.2     1  UNL1        0.0507
     18 C         144.3047  143.0796  161.7899 C.2     1  UNL1        0.0078
     19 C         144.7892  142.1299  160.7348 C.2     1  UNL1        0.0191
     20 C         143.8800  141.7304  159.6107 C.2     1  UNL1        0.0774
     21 N         144.0775  140.8196  158.4354 N.2     1  UNL1       -0.2445
     22 C         142.8058  140.8068  157.6399 C.2     1  UNL1        0.0943
     23 C         141.8224  141.7098  158.3236 C.2     1  UNL1       -0.0052
     24 C         142.4863  142.2806  159.5416 C.2     1  UNL1       -0.0019
     25 C         142.0018  143.2303  160.5968 C.3     1  UNL1        0.0643
     26 N         141.9419  145.5293  163.8311 N.1     1  UNL1       -0.1911
     27 C         142.4264  144.5796  162.7760 C.1     1  UNL1        0.0964
     28 C         139.6412  140.2240  169.0494 C.2     1  UNL1        0.1730
     29 O         138.5640  140.5714  170.0337 O.2     1  UNL1       -0.2913
     30 C         140.9978  139.8099  169.5373 C.3     1  UNL1        0.0692
     31 C         142.2171  140.5597  169.0890 C.3     1  UNL1        0.0082
     32 C         142.7855  140.3184  167.7220 C.3     1  UNL1        0.0032
     33 C         143.1334  141.4796  166.8386 C.3     1  UNL1        0.0174
     34 C         143.7018  141.2383  165.4716 C.3     1  UNL1        0.0724
     35 N         143.9223  139.8355  164.9880 N.3     1  UNL1       -0.2690
     36 C         143.5744  138.6742  165.8714 C.3     1  UNL1        0.0724
     37 C         143.0060  138.9157  167.2384 C.3     1  UNL1        0.0174
     38 C         144.4907  139.5941  163.6210 C.3     1  UNL1        0.0991
     39 C         143.5878  139.1866  162.4946 C.ar    1  UNL1       -0.0061
     40 C         144.0472  138.1643  161.4976 C.ar    1  UNL1       -0.0029
     41 C         143.1443  137.7568  160.3712 C.ar    1  UNL1       -0.0003
     42 C         141.7822  138.3715  160.2418 C.ar    1  UNL1       -0.0000
     43 C         141.3229  139.3937  161.2388 C.ar    1  UNL1       -0.0003
     44 C         142.2257  139.8013  162.3652 C.ar    1  UNL1       -0.0029
@<TRIPOS>BOND
     1    26    27    3
     2    27    17    1
     3    17    18    2
     4    18    19    1
     5    19    20    2
     6    20    21    1
     7    21    22    2
     8    22    23    1
     9    23    16    1
    10    16    15    1
    11    15    14    1
    12    14    13    1
    13    13     7    1
    14     7     8    1
    15     8     9    1
    16     9    10    1
    17    10     1    1
    18     1     2   ar
    19     2     3   ar
    20     3     4   ar
    21     4    28    1
    22    28    29    2
    23    28    30    1
    24    30    31    1
    25    31    32    1
    26    32    33    1
    27    33    34    1
    28    34    35    1
    29    35    38    1
    30    38    39    1
    31    39    40   ar
    32    40    41   ar
    33    41    42   ar
    34    42    43   ar
    35    43    44   ar
    36    35    36    1
    37    36    37    1
    38     4     5   ar
    39     5     6   ar
    40    10    11    1
    41    11    12    1
    42    23    24    2
    43    24    25    1
    44    25    17    1
    45    24    20    1
    46    12     7    1
    47     6     1   ar
    48    37    32    1
    49    44    39   ar
@<TRIPOS>MOLECULE
*****
 44 49 0 0 0
SMALL
GASTEIGER

@<TRIPOS>ATOM
      1 C         142.9704  139.0559  162.5774 C.ar    1  UNL1        0.0479
      2 C         144.1758  139.5969  163.2874 C.ar    1  UNL1        0.0146
      3 C         144.3923  139.2883  164.7392 C.ar    1  UNL1        0.0041
      4 C         143.4034  138.4388  165.4810 C.ar    1  UNL1        0.0348
      5 C         142.1979  137.8978  164.7710 C.ar    1  UNL1        0.0041
      6 C         141.9814  138.2064  163.3192 C.ar    1  UNL1        0.0146
      7 N         142.3207  139.9816  158.2217 N.3     1  UNL1       -0.2698
      8 C         143.6343  140.3055  158.8695 C.3     1  UNL1        0.0938
      9 C         143.8508  139.9969  160.3215 C.3     1  UNL1        0.1081
     10 N         142.7538  139.3644  161.1255 N.pl3   1  UNL1       -0.3046
     11 C         141.4402  139.0405  160.4776 C.3     1  UNL1        0.1081
     12 C         141.2238  139.3490  159.0258 C.3     1  UNL1        0.0938
     13 C         142.1042  140.2901  156.7699 C.3     1  UNL1        0.0722
     14 C         142.3158  141.6847  156.2599 C.3     1  UNL1        0.0177
     15 C         141.6275  142.8393  156.9255 C.3     1  UNL1        0.0061
     16 C         142.3065  143.5744  158.0428 C.3     1  UNL1        0.0277
     17 C         142.8069  144.1182  162.8564 C.2     1  UNL1        0.0507
     18 C         141.7514  144.9997  163.4555 C.2     1  UNL1        0.0078
     19 C         140.6938  145.6045  162.5804 C.2     1  UNL1        0.0191
     20 C         140.6918  145.3278  161.1061 C.2     1  UNL1        0.0774
     21 N         139.7839  145.7804  160.0012 N.2     1  UNL1       -0.2445
     22 C         140.2782  145.1786  158.7192 C.2     1  UNL1        0.0943
     23 C         141.4917  144.3542  159.0318 C.2     1  UNL1       -0.0052
     24 C         141.7473  144.4464  160.5070 C.2     1  UNL1       -0.0019
     25 C         142.8048  143.8416  161.3821 C.3     1  UNL1        0.0643
     26 N         144.9219  142.9086  164.6066 N.1     1  UNL1       -0.1911
     27 C         143.8644  143.5134  163.7315 C.1     1  UNL1        0.0964
     28 C         143.6200  138.1302  166.9329 C.2     1  UNL1        0.1730
     29 O         144.5844  137.0542  167.3352 O.2     1  UNL1       -0.2913
     30 C         142.8721  138.8977  167.9825 C.3     1  UNL1        0.0692
     31 C         142.5091  140.3337  167.7457 C.3     1  UNL1        0.0082
     32 C         141.3498  140.6776  166.8581 C.3     1  UNL1        0.0032
     33 C         141.4780  141.7818  165.8510 C.3     1  UNL1        0.0174
     34 C         140.3187  142.1257  164.9635 C.3     1  UNL1        0.0724
     35 N         139.0311  141.3654  165.0830 N.3     1  UNL1       -0.2690
     36 C         138.9030  140.2611  166.0901 C.3     1  UNL1        0.0724
     37 C         140.0623  139.9173  166.9777 C.3     1  UNL1        0.0174
     38 C         137.8718  141.7093  164.1954 C.3     1  UNL1        0.0991
     39 C         137.9674  141.4834  162.7156 C.ar    1  UNL1       -0.0061
     40 C         137.7253  140.1160  162.1485 C.ar    1  UNL1       -0.0029
     41 C         137.8208  139.8902  160.6687 C.ar    1  UNL1       -0.0003
     42 C         138.1585  141.0317  159.7560 C.ar    1  UNL1       -0.0000
     43 C         138.4006  142.3991  160.3231 C.ar    1  UNL1       -0.0003
     44 C         138.3050  142.6249  161.8030 C.ar    1  UNL1       -0.0029
@<TRIPOS>BOND
     1    26    27    3
     2    27    17    1
     3    17    18    2
     4    18    19    1
     5    19    20    2
     6    20    21    1
     7    21    22    2
     8    22    23    1
     9    23    16    1
    10    16    15    1
    11    15    14    1
    12    14    13    1
    13    13     7    1
    14     7     8    1
    15     8     9    1
    16     9    10    1
    17    10     1    1
    18     1     2   ar
    19     2     3   ar
    20     3     4   ar
    21     4    28    1
    22    28    29    2
    23    28    30    1
    24    30    31    1
    25    31    32    1
    26    32    33    1
    27    33    34    1
    28    34    35    1
    29    35    38    1
    30    38    39    1
    31    39    40   ar
    32    40    41   ar
    33    41    42   ar
    34    42    43   ar
    35    43    44   ar
    36    35    36    1
    37    36    37    1
    38     4     5   ar
    39     5     6   ar
    40    10    11    1
    41    11    12    1
    42    23    24    2
    43    24    25    1
    44    25    17    1
    45    24    20    1
    46    12     7    1
    47     6     1   ar
    48    37    32    1
    49    44    39   ar
@<TRIPOS>MOLECULE
*****
 44 49 0 0 0
SMALL
GASTEIGER

@<TRIPOS>ATOM
      1 C         139.2898  140.7994  165.0152 C.ar    1  UNL1        0.0479
      2 C         139.6305  141.9868  165.8662 C.ar    1  UNL1        0.0146
      3 C         139.7878  141.8261  167.3492 C.ar    1  UNL1        0.0041
      4 C         139.6044  140.4782  167.9812 C.ar    1  UNL1        0.0348
      5 C         139.2638  139.2909  167.1303 C.ar    1  UNL1        0.0041
      6 C         139.1065  139.4515  165.6472 C.ar    1  UNL1        0.0146
      7 N         138.8180  141.2812  160.5659 N.3     1  UNL1       -0.2698
      8 C         140.0911  141.7066  161.2355 C.3     1  UNL1        0.0938
      9 C         140.2483  141.5460  162.7187 C.3     1  UNL1        0.1081
     10 N         139.1325  140.9600  163.5321 N.pl3   1  UNL1       -0.3046
     11 C         137.8595  140.5345  162.8624 C.3     1  UNL1        0.1081
     12 C         137.7023  140.6951  161.3794 C.3     1  UNL1        0.0938
     13 C         138.6607  141.4417  159.0829 C.3     1  UNL1        0.0722
     14 C         139.7456  142.0965  158.2802 C.3     1  UNL1        0.0177
     15 C         139.7835  143.5901  158.1481 C.3     1  UNL1        0.0061
     16 C         140.9311  144.3652  158.7244 C.3     1  UNL1        0.0277
     17 C         143.6394  143.5913  162.6971 C.2     1  UNL1        0.0507
     18 C         143.1758  144.3863  163.8816 C.2     1  UNL1        0.0078
     19 C         141.9911  145.2977  163.7560 C.2     1  UNL1        0.0191
     20 C         141.2700  145.4142  162.4460 C.2     1  UNL1        0.0774
     21 N         140.0803  146.2242  162.0237 N.2     1  UNL1       -0.2445
     22 C         139.8085  145.9299  160.5781 C.2     1  UNL1        0.0943
     23 C         140.8303  144.9379  160.1070 C.2     1  UNL1       -0.0052
     24 C         141.7335  144.6192  161.2615 C.2     1  UNL1       -0.0019
     25 C         142.9182  143.7078  161.3870 C.3     1  UNL1        0.0643
     26 N         146.0088  141.7684  162.9482 N.1     1  UNL1       -0.1911
     27 C         144.8241  142.6799  162.8227 C.1     1  UNL1        0.0964
     28 C         139.7617  140.3177  169.4643 C.2     1  UNL1        0.1730
     29 O         138.5789  140.5014  170.3682 O.2     1  UNL1       -0.2913
     30 C         141.1019  139.9734  170.0435 C.3     1  UNL1        0.0692
     31 C         142.3473  140.5719  169.4600 C.3     1  UNL1        0.0082
     32 C         142.7828  140.1949  168.0750 C.3     1  UNL1        0.0032
     33 C         142.9960  141.2594  167.0400 C.3     1  UNL1        0.0174
     34 C         143.4315  140.8824  165.6550 C.3     1  UNL1        0.0724
     35 N         143.6537  139.4407  165.3050 N.3     1  UNL1       -0.2690
     36 C         143.4404  138.3762  166.3400 C.3     1  UNL1        0.0724
     37 C         143.0049  138.7533  167.7250 C.3     1  UNL1        0.0174
     38 C         144.0891  139.0637  163.9199 C.3     1  UNL1        0.0991
     39 C         143.0644  138.8168  162.8527 C.ar    1  UNL1       -0.0061
     40 C         141.7694  138.1432  163.1979 C.ar    1  UNL1       -0.0029
     41 C         140.7447  137.8962  162.1307 C.ar    1  UNL1       -0.0003
     42 C         141.0150  138.3229  160.7183 C.ar    1  UNL1       -0.0000
     43 C         142.3100  138.9965  160.3731 C.ar    1  UNL1       -0.0003
     44 C         143.3347  139.2434  161.4403 C.ar    1  UNL1       -0.0029
@<TRIPOS>BOND
     1    26    27    3
     2    27    17    1
     3    17    18    2
     4    18    19    1
     5    19    20    2
     6    20    21    1
     7    21    22    2
     8    22    23    1
     9    23    16    1
    10    16    15    1
    11    15    14    1
    12    14    13    1
    13    13     7    1
    14     7     8    1
    15     8     9    1
    16     9    10    1
    17    10     1    1
    18     1     2   ar
    19     2     3   ar
    20     3     4   ar
    21     4    28    1
    22    28    29    2
    23    28    30    1
    24    30    31    1
    25    31    32    1
    26    32    33    1
    27    33    34    1
    28    34    35    1
    29    35    38    1
    30    38    39    1
    31    39    40   ar
    32    40    41   ar
    33    41    42   ar
    34    42    43   ar
    35    43    44   ar
    36    35    36    1
    37    36    37    1
    38     4     5   ar
    39     5     6   ar
    40    10    11    1
    41    11    12    1
    42    23    24    2
    43    24    25    1
    44    25    17    1
    45    24    20    1
    46    12     7    1
    47     6     1   ar
    48    37    32    1
    49    44    39   ar
@<TRIPOS>MOLECULE
*****
 44 49 0 0 0
SMALL
GASTEIGER

@<TRIPOS>ATOM
      1 C         138.9730  139.9342  160.4338 C.ar    1  UNL1        0.0479
      2 C         139.5849  138.9445  159.4872 C.ar    1  UNL1        0.0146
      3 C         139.7628  139.3012  158.0411 C.ar    1  UNL1        0.0041
      4 C         139.3289  140.6474  157.5417 C.ar    1  UNL1        0.0348
      5 C         138.7170  141.6370  158.4884 C.ar    1  UNL1        0.0041
      6 C         138.5390  141.2804  159.9344 C.ar    1  UNL1        0.0146
      7 N         138.4389  138.8646  164.7722 N.3     1  UNL1       -0.2698
      8 C         138.2090  140.2741  164.3134 C.3     1  UNL1        0.0938
      9 C         138.3870  140.6306  162.8672 C.3     1  UNL1        0.1081
     10 N         138.7950  139.5776  161.8799 N.pl3   1  UNL1       -0.3046
     11 C         139.0249  138.1681  162.3387 C.3     1  UNL1        0.1081
     12 C         138.8469  137.8117  163.7848 C.3     1  UNL1        0.0938
     13 C         138.2609  138.5081  166.2182 C.3     1  UNL1        0.0722
     14 C         138.7405  139.4456  167.2864 C.3     1  UNL1        0.0177
     15 C         140.1368  139.9913  167.2339 C.3     1  UNL1        0.0061
     16 C         140.3810  141.4514  167.4751 C.3     1  UNL1        0.0277
     17 C         141.2365  143.9402  163.3774 C.2     1  UNL1        0.0507
     18 C         142.6558  144.4132  163.2691 C.2     1  UNL1        0.0078
     19 C         143.6355  144.1019  164.3615 C.2     1  UNL1        0.0191
     20 C         143.1959  143.3176  165.5621 C.2     1  UNL1        0.0774
     21 N         143.9311  142.8621  166.7877 N.2     1  UNL1       -0.2445
     22 C         142.9661  142.1076  167.6535 C.2     1  UNL1        0.0943
     23 C         141.6345  142.0967  166.9630 C.2     1  UNL1       -0.0052
     24 C         141.7766  142.8446  165.6704 C.2     1  UNL1       -0.0019
     25 C         140.7969  143.1559  164.5781 C.3     1  UNL1        0.0643
     26 N         139.2770  144.5627  161.1927 N.1     1  UNL1       -0.1911
     27 C         140.2567  144.2514  162.2851 C.1     1  UNL1        0.0964
     28 C         139.5069  141.0039  156.0956 C.2     1  UNL1        0.1730
     29 O         138.3833  140.7869  155.1259 O.2     1  UNL1       -0.2913
     30 C         140.8085  141.5775  155.6192 C.3     1  UNL1        0.0692
     31 C         141.4277  142.7357  156.3439 C.3     1  UNL1        0.0082
     32 C         142.2272  142.4993  157.5908 C.3     1  UNL1        0.0032
     33 C         142.1482  143.4737  158.7284 C.3     1  UNL1        0.0174
     34 C         142.9478  143.2373  159.9754 C.3     1  UNL1        0.0724
     35 N         143.8264  142.0263  160.0846 N.3     1  UNL1       -0.2690
     36 C         143.9054  141.0519  158.9469 C.3     1  UNL1        0.0724
     37 C         143.1058  141.2885  157.7000 C.3     1  UNL1        0.0174
     38 C         144.6260  141.7899  161.3315 C.3     1  UNL1        0.0991
     39 C         144.0369  140.9987  162.4615 C.ar    1  UNL1       -0.0061
     40 C         142.5912  140.6005  162.4245 C.ar    1  UNL1       -0.0029
     41 C         142.0021  139.8093  163.5545 C.ar    1  UNL1       -0.0003
     42 C         142.8586  139.4163  164.7215 C.ar    1  UNL1       -0.0000
     43 C         144.3043  139.8146  164.7585 C.ar    1  UNL1       -0.0003
     44 C         144.8934  140.6058  163.6285 C.ar    1  UNL1       -0.0029
@<TRIPOS>BOND
     1    26    27    3
     2    27    17    1
     3    17    18    2
     4    18    19    1
     5    19    20    2
     6    20    21    1
     7    21    22    2
     8    22    23    1
     9    23    16    1
    10    16    15    1
    11    15    14    1
    12    14    13    1
    13    13     7    1
    14     7     8    1
    15     8     9    1
    16     9    10    1
    17    10     1    1
    18     1     2   ar
    19     2     3   ar
    20     3     4   ar
    21     4    28    1
    22    28    29    2
    23    28    30    1
    24    30    31    1
    25    31    32    1
    26    32    33    1
    27    33    34    1
    28    34    35    1
    29    35    38    1
    30    38    39    1
    31    39    40   ar
    32    40    41   ar
    33    41    42   ar
    34    42    43   ar
    35    43    44   ar
    36    35    36    1
    37    36    37    1
    38     4     5   ar
    39     5     6   ar
    40    10    11    1
    41    11    12    1
    42    23    24    2
    43    24    25    1
    44    25    17    1
    45    24    20    1
    46    12     7    1
    47     6     1   ar
    48    37    32    1
    49    44    39   ar
@<TRIPOS>MOLECULE
*****
 44 49 0 0 0
SMALL
GASTEIGER

@<TRIPOS>ATOM
      1 C         142.1219  143.5293  164.3740 C.ar    1  UNL1        0.0479
      2 C         141.0012  143.2703  165.3369 C.ar    1  UNL1        0.0146
      3 C         141.2991  142.7507  166.7121 C.ar    1  UNL1        0.0041
      4 C         142.7176  142.4902  167.1245 C.ar    1  UNL1        0.0348
      5 C         143.8382  142.7492  166.1617 C.ar    1  UNL1        0.0041
      6 C         143.5404  143.2687  164.7865 C.ar    1  UNL1        0.0146
      7 N         141.2285  145.0881  160.2482 N.3     1  UNL1       -0.2698
      8 C         140.3962  145.5324  161.4144 C.3     1  UNL1        0.0938
      9 C         140.6940  145.0128  162.7896 C.3     1  UNL1        0.1081
     10 N         141.8241  144.0489  162.9988 N.pl3   1  UNL1       -0.3046
     11 C         142.6564  143.6046  161.8326 C.3     1  UNL1        0.1081
     12 C         142.3586  144.1242  160.4574 C.3     1  UNL1        0.0938
     13 C         140.9307  145.6077  158.8730 C.3     1  UNL1        0.0722
     14 C         139.9226  144.9092  158.0094 C.3     1  UNL1        0.0177
     15 C         140.3490  143.7726  157.1282 C.3     1  UNL1        0.0061
     16 C         141.0102  142.5666  157.7269 C.3     1  UNL1        0.0277
     17 C         138.1859  141.7662  161.6127 C.2     1  UNL1        0.0507
     18 C         137.5381  140.4135  161.5928 C.2     1  UNL1        0.0078
     19 C         137.7954  139.4754  160.4510 C.2     1  UNL1        0.0191
     20 C         138.7004  139.8900  159.3290 C.2     1  UNL1        0.0774
     21 N         139.1385  139.1847  158.0798 N.2     1  UNL1       -0.2445
     22 C         140.0571  140.1014  157.3276 C.2     1  UNL1        0.0943
     23 C         140.1867  141.3735  158.1119 C.2     1  UNL1       -0.0052
     24 C         139.3482  141.2428  159.3488 C.2     1  UNL1       -0.0019
     25 C         139.0910  142.1809  160.4907 C.3     1  UNL1        0.0643
     26 N         137.6714  143.6424  163.8964 N.1     1  UNL1       -0.1911
     27 C         137.9287  142.7043  162.7545 C.1     1  UNL1        0.0964
     28 C         143.0153  141.9706  168.4998 C.2     1  UNL1        0.1730
     29 O         143.9318  142.7353  169.4082 O.2     1  UNL1       -0.2913
     30 C         142.3967  140.6863  168.9667 C.3     1  UNL1        0.0692
     31 C         142.6957  139.4047  168.2470 C.3     1  UNL1        0.0082
     32 C         142.1855  139.1909  166.8527 C.3     1  UNL1        0.0032
     33 C         140.7383  139.4296  166.5387 C.3     1  UNL1        0.0174
     34 C         140.2282  139.2158  165.1444 C.3     1  UNL1        0.0724
     35 N         141.1654  138.7634  164.0640 N.3     1  UNL1       -0.2690
     36 C         142.6126  138.5247  164.3780 C.3     1  UNL1        0.0724
     37 C         143.1226  138.7385  165.7724 C.3     1  UNL1        0.0174
     38 C         140.6553  138.5496  162.6697 C.3     1  UNL1        0.0991
     39 C         141.5336  138.8596  161.4940 C.ar    1  UNL1       -0.0061
     40 C         141.7334  137.8355  160.4164 C.ar    1  UNL1       -0.0029
     41 C         142.6118  138.1455  159.2407 C.ar    1  UNL1       -0.0003
     42 C         143.2904  139.4796  159.1425 C.ar    1  UNL1       -0.0000
     43 C         143.0906  140.5038  160.2201 C.ar    1  UNL1       -0.0003
     44 C         142.2122  140.1938  161.3958 C.ar    1  UNL1       -0.0029
@<TRIPOS>BOND
     1    26    27    3
     2    27    17    1
     3    17    18    2
     4    18    19    1
     5    19    20    2
     6    20    21    1
     7    21    22    2
     8    22    23    1
     9    23    16    1
    10    16    15    1
    11    15    14    1
    12    14    13    1
    13    13     7    1
    14     7     8    1
    15     8     9    1
    16     9    10    1
    17    10     1    1
    18     1     2   ar
    19     2     3   ar
    20     3     4   ar
    21     4    28    1
    22    28    29    2
    23    28    30    1
    24    30    31    1
    25    31    32    1
    26    32    33    1
    27    33    34    1
    28    34    35    1
    29    35    38    1
    30    38    39    1
    31    39    40   ar
    32    40    41   ar
    33    41    42   ar
    34    42    43   ar
    35    43    44   ar
    36    35    36    1
    37    36    37    1
    38     4     5   ar
    39     5     6   ar
    40    10    11    1
    41    11    12    1
    42    23    24    2
    43    24    25    1
    44    25    17    1
    45    24    20    1
    46    12     7    1
    47     6     1   ar
    48    37    32    1
    49    44    39   ar
@<TRIPOS>MOLECULE
*****
 44 49 0 0 0
SMALL
GASTEIGER

@<TRIPOS>ATOM
      1 C         141.7782  143.4920  164.3427 C.ar    1  UNL1        0.0479
      2 C         140.7240  143.2168  165.3737 C.ar    1  UNL1        0.0146
      3 C         141.1136  142.6858  166.7213 C.ar    1  UNL1        0.0041
      4 C         142.5573  142.4300  167.0380 C.ar    1  UNL1        0.0348
      5 C         143.6115  142.7052  166.0070 C.ar    1  UNL1        0.0041
      6 C         143.2219  143.2362  164.6593 C.ar    1  UNL1        0.0146
      7 N         140.6095  145.0850  160.2996 N.3     1  UNL1       -0.2698
      8 C         139.7030  145.2897  161.4770 C.3     1  UNL1        0.0938
      9 C         140.0926  144.7586  162.8247 C.3     1  UNL1        0.1081
     10 N         141.3887  144.0230  162.9950 N.pl3   1  UNL1       -0.3046
     11 C         142.2952  143.8183  161.8175 C.3     1  UNL1        0.1081
     12 C         141.9056  144.3493  160.4698 C.3     1  UNL1        0.0938
     13 C         140.2200  145.6160  158.9519 C.3     1  UNL1        0.0722
     14 C         140.0764  144.6789  157.7894 C.3     1  UNL1        0.0177
     15 C         139.0519  143.5841  157.8307 C.3     1  UNL1        0.0061
     16 C         139.0012  142.5626  156.7334 C.3     1  UNL1        0.0277
     17 C         142.8992  140.7157  158.9942 C.2     1  UNL1        0.0507
     18 C         142.8836  139.2168  159.0507 C.2     1  UNL1        0.0078
     19 C         141.7419  138.4553  158.4451 C.2     1  UNL1        0.0191
     20 C         140.6158  139.1926  157.7832 C.2     1  UNL1        0.0774
     21 N         139.3658  138.7162  157.1047 N.2     1  UNL1       -0.2445
     22 C         138.6088  139.9206  156.6288 C.2     1  UNL1        0.0943
     23 C         139.3910  141.1414  157.0133 C.2     1  UNL1       -0.0052
     24 C         140.6314  140.6915  157.7267 C.2     1  UNL1       -0.0019
     25 C         141.7731  141.4530  158.3322 C.3     1  UNL1        0.0643
     26 N         145.1826  142.2387  160.2052 N.1     1  UNL1       -0.1911
     27 C         144.0409  141.4772  159.5997 C.1     1  UNL1        0.0964
     28 C         142.9468  141.8990  168.3857 C.2     1  UNL1        0.1730
     29 O         143.9018  142.6699  169.2481 O.2     1  UNL1       -0.2913
     30 C         142.3814  140.5971  168.8711 C.3     1  UNL1        0.0692
     31 C         142.7578  139.3153  168.1891 C.3     1  UNL1        0.0082
     32 C         142.4273  139.1115  166.7402 C.3     1  UNL1        0.0032
     33 C         140.9977  139.1353  166.2866 C.3     1  UNL1        0.0174
     34 C         140.6672  138.9316  164.8377 C.3     1  UNL1        0.0724
     35 N         141.7662  138.7039  163.8424 N.3     1  UNL1       -0.2690
     36 C         143.1958  138.6801  164.2961 C.3     1  UNL1        0.0724
     37 C         143.5262  138.8839  165.7450 C.3     1  UNL1        0.0174
     38 C         141.4357  138.5002  162.3936 C.3     1  UNL1        0.0991
     39 C         140.3292  139.2892  161.7586 C.ar    1  UNL1       -0.0061
     40 C         139.1503  138.5804  161.1605 C.ar    1  UNL1       -0.0029
     41 C         138.0439  139.3694  160.5255 C.ar    1  UNL1       -0.0003
     42 C         138.1164  140.8672  160.4885 C.ar    1  UNL1       -0.0000
     43 C         139.2953  141.5760  161.0866 C.ar    1  UNL1       -0.0003
     44 C         140.4017  140.7870  161.7216 C.ar    1  UNL1       -0.0029
@<TRIPOS>BOND
     1    26    27    3
     2    27    17    1
     3    17    18    2
     4    18    19    1
     5    19    20    2
     6    20    21    1
     7    21    22    2
     8    22    23    1
     9    23    16    1
    10    16    15    1
    11    15    14    1
    12    14    13    1
    13    13     7    1
    14     7     8    1
    15     8     9    1
    16     9    10    1
    17    10     1    1
    18     1     2   ar
    19     2     3   ar
    20     3     4   ar
    21     4    28    1
    22    28    29    2
    23    28    30    1
    24    30    31    1
    25    31    32    1
    26    32    33    1
    27    33    34    1
    28    34    35    1
    29    35    38    1
    30    38    39    1
    31    39    40   ar
    32    40    41   ar
    33    41    42   ar
    34    42    43   ar
    35    43    44   ar
    36    35    36    1
    37    36    37    1
    38     4     5   ar
    39     5     6   ar
    40    10    11    1
    41    11    12    1
    42    23    24    2
    43    24    25    1
    44    25    17    1
    45    24    20    1
    46    12     7    1
    47     6     1   ar
    48    37    32    1
    49    44    39   ar
