@<TRIPOS>MOLECULE
*****
 33 36 0 0 0
SMALL
GASTEIGER

@<TRIPOS>ATOM
      1 C         143.5218  141.1417  161.1774 C.3     1  UNL1        0.1219
      2 C         143.2700  141.1942  162.6551 C.ar    1  UNL1       -0.0121
      3 C         143.9157  140.1890  163.5621 C.ar    1  UNL1       -0.0037
      4 C         143.6639  140.2415  165.0399 C.ar    1  UNL1       -0.0003
      5 C         142.7663  141.2991  165.6107 C.ar    1  UNL1        0.0015
      6 C         142.1206  142.3043  164.7037 C.ar    1  UNL1       -0.0003
      7 C         142.3724  142.2518  163.2259 C.ar    1  UNL1       -0.0037
      8 C         142.5145  141.3516  167.0885 C.ar    1  UNL1        0.0193
      9 C         143.2939  142.3013  167.9489 C.ar    1  UNL1        0.0047
     10 C         143.0420  142.3538  169.4267 C.ar    1  UNL1        0.0389
     11 C         142.0106  141.4565  170.0440 C.ar    1  UNL1        0.1656
     12 N         141.5469  141.2861  171.4603 N.ar    1  UNL1       -0.2034
     13 C         140.4808  140.2310  171.4751 C.ar    1  UNL1        0.2213
     14 N         140.2856  139.7493  170.0681 N.ar    1  UNL1       -0.1409
     15 N         141.2312  140.5067  169.1835 N.ar    1  UNL1       -0.2092
     16 C         141.4831  140.4543  167.7058 C.ar    1  UNL1        0.1021
     17 C         141.3197  138.5317  159.1554 C.3     1  UNL1        0.1149
     18 N         141.7111  139.7486  159.9403 N.am    1  UNL1       -0.2757
     19 C         140.6833  140.7893  160.2728 C.3     1  UNL1        0.1149
     20 C         143.1304  139.9248  160.3925 C.2     1  UNL1        0.2312
     21 O         144.1582  138.8842  160.0600 O.2     1  UNL1       -0.2745
     22 C         144.1651  142.3062  160.4844 C.3     1  UNL1        0.1413
     23 N         145.3669  142.9687  161.0901 N.3     1  UNL1       -0.3144
     24 H         145.6079  142.5021  161.9645 H       1  UNL1        0.1193
     25 H         145.1574  143.9498  161.2747 H       1  UNL1        0.1193
     26 C         143.6068  142.8080  159.1859 C.2     1  UNL1        0.2406
     27 O         144.1733  142.3178  157.8864 O.2     1  UNL1       -0.2734
     28 N         142.4817  143.8002  159.1868 N.am    1  UNL1       -0.2756
     29 C         141.8243  144.3888  157.9738 C.3     1  UNL1        0.0964
     30 C         140.7529  145.3304  158.4382 C.3     1  UNL1        0.0585
     31 C         140.7482  145.3236  159.9381 C.3     1  UNL1        0.1824
     32 F         139.8353  146.1224  160.8205 F       1  UNL1       -0.2354
     33 C         141.8166  144.3780  160.4008 C.3     1  UNL1        0.1286
@<TRIPOS>BOND
     1    17    18    1
     2    18    19    1
     3    18    20   am
     4    20    21    2
     5     1    20    1
     6     1     2    1
     7     2     3   ar
     8     3     4   ar
     9     4     5   ar
    10     5     8    1
    11     8     9   ar
    12     9    10   ar
    13    10    11   ar
    14    11    12   ar
    15    12    13   ar
    16    13    14   ar
    17    14    15   ar
    18    15    16   ar
    19     5     6   ar
    20     6     7   ar
    21     1    22    1
    22    22    23    1
    23    22    26    1
    24    26    27    2
    25    26    28   am
    26    28    29    1
    27    29    30    1
    28    30    31    1
    29    31    32    1
    30    31    33    1
    31     7     2   ar
    32    33    28    1
    33    16     8   ar
    34    15    11   ar
    35    23    24    1
    36    23    25    1
@<TRIPOS>MOLECULE
*****
 33 36 0 0 0
SMALL
GASTEIGER

@<TRIPOS>ATOM
      1 C         140.6134  143.1128  160.7344 C.3     1  UNL1        0.1219
      2 C         140.5090  142.7495  162.1859 C.ar    1  UNL1       -0.0121
      3 C         139.2508  143.0494  162.9455 C.ar    1  UNL1       -0.0037
      4 C         139.1465  142.6860  164.3971 C.ar    1  UNL1       -0.0003
      5 C         140.3002  142.0228  165.0891 C.ar    1  UNL1        0.0015
      6 C         141.5584  141.7229  164.3295 C.ar    1  UNL1       -0.0003
      7 C         141.6628  142.0862  162.8779 C.ar    1  UNL1       -0.0037
      8 C         140.1959  141.6594  166.5407 C.ar    1  UNL1        0.0193
      9 C         139.5587  140.3633  166.9455 C.ar    1  UNL1        0.0047
     10 C         139.4543  139.9999  168.3971 C.ar    1  UNL1        0.0389
     11 C         139.9873  140.9328  169.4439 C.ar    1  UNL1        0.1656
     12 N         140.0257  140.8450  170.9408 N.ar    1  UNL1       -0.2034
     13 C         140.6867  142.0869  171.4611 C.ar    1  UNL1        0.2213
     14 N         141.0568  142.9422  170.2858 N.ar    1  UNL1       -0.1409
     15 N         140.6245  142.2290  169.0391 N.ar    1  UNL1       -0.2092
     16 C         140.7288  142.5923  167.5875 C.ar    1  UNL1        0.1021
     17 C         139.3130  140.4164  158.1289 C.3     1  UNL1        0.1149
     18 N         140.1790  141.1084  159.1395 N.am    1  UNL1       -0.2757
     19 C         141.4766  140.4881  159.5657 C.3     1  UNL1        0.1149
     20 C         139.7475  142.4207  159.7238 C.2     1  UNL1        0.2312
     21 O         138.4499  143.0410  159.2976 O.2     1  UNL1       -0.2745
     22 C         141.5838  144.1682  160.2933 C.3     1  UNL1        0.1413
     23 N         142.0253  145.2304  161.2561 N.3     1  UNL1       -0.3144
     24 H         141.5705  145.0830  162.1571 H       1  UNL1        0.1193
     25 H         141.7684  146.1478  160.8916 H       1  UNL1        0.1193
     26 C         142.1125  144.1615  158.8897 C.2     1  UNL1        0.2406
     27 O         143.3119  143.3298  158.5440 O.2     1  UNL1       -0.2734
     28 N         141.4418  144.9865  157.8316 N.am    1  UNL1       -0.2756
     29 C         141.8547  145.0798  156.3926 C.3     1  UNL1        0.0964
     30 C         140.9085  146.0140  155.6984 C.3     1  UNL1        0.0585
     31 C         139.9108  146.4981  156.7084 C.3     1  UNL1        0.1824
     32 F         138.7817  147.4501  156.4460 F       1  UNL1       -0.2354
     33 C         140.2403  145.8631  158.0268 C.3     1  UNL1        0.1286
@<TRIPOS>BOND
     1    17    18    1
     2    18    19    1
     3    18    20   am
     4    20    21    2
     5     1    20    1
     6     1     2    1
     7     2     3   ar
     8     3     4   ar
     9     4     5   ar
    10     5     8    1
    11     8     9   ar
    12     9    10   ar
    13    10    11   ar
    14    11    12   ar
    15    12    13   ar
    16    13    14   ar
    17    14    15   ar
    18    15    16   ar
    19     5     6   ar
    20     6     7   ar
    21     1    22    1
    22    22    23    1
    23    22    26    1
    24    26    27    2
    25    26    28   am
    26    28    29    1
    27    29    30    1
    28    30    31    1
    29    31    32    1
    30    31    33    1
    31     7     2   ar
    32    33    28    1
    33    16     8   ar
    34    15    11   ar
    35    23    24    1
    36    23    25    1
@<TRIPOS>MOLECULE
*****
 33 36 0 0 0
SMALL
GASTEIGER

@<TRIPOS>ATOM
      1 C         141.4372  139.9610  166.5265 C.3     1  UNL1        0.1219
      2 C         141.9955  140.2463  165.1638 C.ar    1  UNL1       -0.0121
      3 C         142.4724  139.1185  164.2974 C.ar    1  UNL1       -0.0037
      4 C         143.0306  139.4040  162.9347 C.ar    1  UNL1       -0.0003
      5 C         143.1120  140.8171  162.4384 C.ar    1  UNL1        0.0015
      6 C         142.6351  141.9449  163.3048 C.ar    1  UNL1       -0.0003
      7 C         142.0769  141.6595  164.6675 C.ar    1  UNL1       -0.0037
      8 C         143.6703  141.1025  161.0757 C.ar    1  UNL1        0.0193
      9 C         144.3570  142.4082  160.8049 C.ar    1  UNL1        0.0047
     10 C         144.9152  142.6936  159.4422 C.ar    1  UNL1        0.0389
     11 C         144.7867  141.6732  158.3503 C.ar    1  UNL1        0.1656
     12 N         145.2349  141.6732  156.9188 N.ar    1  UNL1       -0.2034
     13 C         144.8251  140.3673  156.3049 C.ar    1  UNL1        0.2213
     14 N         144.1237  139.5603  157.3570 N.ar    1  UNL1       -0.1409
     15 N         144.1000  140.3674  158.6211 N.ar    1  UNL1       -0.2092
     16 C         143.5417  140.0821  159.9838 C.ar    1  UNL1        0.1021
     17 C         143.2981  141.2736  169.7767 C.3     1  UNL1        0.1149
     18 N         142.4006  141.2353  168.5754 N.am    1  UNL1       -0.2757
     19 C         141.5692  142.4326  168.2217 C.3     1  UNL1        0.1149
     20 C         142.3347  139.9995  167.7278 C.2     1  UNL1        0.2312
     21 O         143.1661  138.8022  168.0815 O.2     1  UNL1       -0.2745
     22 C         139.9815  139.6372  166.6878 C.3     1  UNL1        0.1413
     23 N         139.3712  139.5893  168.0573 N.3     1  UNL1       -0.3144
     24 H         140.0846  139.8005  168.7550 H       1  UNL1        0.1193
     25 H         138.9932  138.6576  168.2287 H       1  UNL1        0.1193
     26 C         139.1362  139.3612  165.4799 C.2     1  UNL1        0.2406
     27 O         138.9211  137.9492  165.0216 O.2     1  UNL1       -0.2734
     28 N         138.5058  140.4973  164.7301 N.am    1  UNL1       -0.2756
     29 C         137.6400  140.3766  163.5112 C.3     1  UNL1        0.0964
     30 C         137.2297  141.7582  163.0955 C.3     1  UNL1        0.0585
     31 C         137.8419  142.7327  164.0575 C.3     1  UNL1        0.1824
     32 F         137.6918  144.2246  164.0164 F       1  UNL1       -0.2354
     33 C         138.6306  141.9535  165.0677 C.3     1  UNL1        0.1286
@<TRIPOS>BOND
     1    17    18    1
     2    18    19    1
     3    18    20   am
     4    20    21    2
     5     1    20    1
     6     1     2    1
     7     2     3   ar
     8     3     4   ar
     9     4     5   ar
    10     5     8    1
    11     8     9   ar
    12     9    10   ar
    13    10    11   ar
    14    11    12   ar
    15    12    13   ar
    16    13    14   ar
    17    14    15   ar
    18    15    16   ar
    19     5     6   ar
    20     6     7   ar
    21     1    22    1
    22    22    23    1
    23    22    26    1
    24    26    27    2
    25    26    28   am
    26    28    29    1
    27    29    30    1
    28    30    31    1
    29    31    32    1
    30    31    33    1
    31     7     2   ar
    32    33    28    1
    33    16     8   ar
    34    15    11   ar
    35    23    24    1
    36    23    25    1
@<TRIPOS>MOLECULE
*****
 33 36 0 0 0
SMALL
GASTEIGER

@<TRIPOS>ATOM
      1 C         141.4190  139.9051  160.0340 C.3     1  UNL1        0.1219
      2 C         141.0238  139.8866  161.4809 C.ar    1  UNL1       -0.0121
      3 C         140.8675  138.5789  162.1990 C.ar    1  UNL1       -0.0037
      4 C         140.4724  138.5605  163.6460 C.ar    1  UNL1       -0.0003
      5 C         140.2335  139.8496  164.3747 C.ar    1  UNL1        0.0015
      6 C         140.3898  141.1572  163.6566 C.ar    1  UNL1       -0.0003
      7 C         140.7850  141.1757  162.2097 C.ar    1  UNL1       -0.0037
      8 C         139.8383  139.8312  165.8216 C.ar    1  UNL1        0.0193
      9 C         138.5124  139.2611  166.2298 C.ar    1  UNL1        0.0047
     10 C         138.1172  139.2427  167.6767 C.ar    1  UNL1        0.0389
     11 C         139.0482  139.7944  168.7154 C.ar    1  UNL1        0.1656
     12 N         138.9326  139.9110  170.2064 N.ar    1  UNL1       -0.2034
     13 C         140.1872  140.5531  170.7197 C.ar    1  UNL1        0.2213
     14 N         141.0782  140.8334  169.5460 N.ar    1  UNL1       -0.1409
     15 N         140.3742  140.3644  168.3073 N.ar    1  UNL1       -0.2092
     16 C         140.7693  140.3828  166.8603 C.ar    1  UNL1        0.1021
     17 C         138.7315  140.8287  157.2637 C.3     1  UNL1        0.1149
     18 N         139.7774  140.9763  158.3288 N.am    1  UNL1       -0.2757
     19 C         140.2277  142.3426  158.7537 C.3     1  UNL1        0.1149
     20 C         140.3731  139.7576  158.9689 C.2     1  UNL1        0.2312
     21 O         139.9228  138.3913  158.5440 O.2     1  UNL1       -0.2745
     22 C         142.8600  140.0711  159.6522 C.3     1  UNL1        0.1413
     23 N         143.5142  139.0744  158.7418 N.3     1  UNL1       -0.3144
     24 H         142.8378  138.3568  158.4811 H       1  UNL1        0.1193
     25 H         144.3021  138.6404  159.2228 H       1  UNL1        0.1193
     26 C         143.6468  141.2335  160.1807 C.2     1  UNL1        0.2406
     27 O         143.7449  142.4987  159.3808 O.2     1  UNL1       -0.2734
     28 N         144.3357  141.1310  161.5093 N.am    1  UNL1       -0.2756
     29 C         145.1539  142.2046  162.1634 C.3     1  UNL1        0.0964
     30 C         145.6512  141.6740  163.4753 C.3     1  UNL1        0.0585
     31 C         145.1403  140.2724  163.6320 C.3     1  UNL1        0.1824
     32 F         145.3974  139.3657  164.7989 F       1  UNL1       -0.2354
     33 C         144.3273  139.9368  162.4169 C.3     1  UNL1        0.1286
@<TRIPOS>BOND
     1    17    18    1
     2    18    19    1
     3    18    20   am
     4    20    21    2
     5     1    20    1
     6     1     2    1
     7     2     3   ar
     8     3     4   ar
     9     4     5   ar
    10     5     8    1
    11     8     9   ar
    12     9    10   ar
    13    10    11   ar
    14    11    12   ar
    15    12    13   ar
    16    13    14   ar
    17    14    15   ar
    18    15    16   ar
    19     5     6   ar
    20     6     7   ar
    21     1    22    1
    22    22    23    1
    23    22    26    1
    24    26    27    2
    25    26    28   am
    26    28    29    1
    27    29    30    1
    28    30    31    1
    29    31    32    1
    30    31    33    1
    31     7     2   ar
    32    33    28    1
    33    16     8   ar
    34    15    11   ar
    35    23    24    1
    36    23    25    1
@<TRIPOS>MOLECULE
*****
 33 36 0 0 0
SMALL
GASTEIGER

@<TRIPOS>ATOM
      1 C         142.5020  142.8902  161.2945 C.3     1  UNL1        0.1219
      2 C         142.4501  142.6154  162.7682 C.ar    1  UNL1       -0.0121
      3 C         143.2257  143.4775  163.7196 C.ar    1  UNL1       -0.0037
      4 C         143.1737  143.2026  165.1934 C.ar    1  UNL1       -0.0003
      5 C         142.3462  142.0658  165.7155 C.ar    1  UNL1        0.0015
      6 C         141.5706  141.2037  164.7641 C.ar    1  UNL1       -0.0003
      7 C         141.6226  141.4785  163.2904 C.ar    1  UNL1       -0.0037
      8 C         142.2942  141.7909  167.1893 C.ar    1  UNL1        0.0193
      9 C         143.3518  142.3498  168.0942 C.ar    1  UNL1        0.0047
     10 C         143.2998  142.0749  169.5680 C.ar    1  UNL1        0.0389
     11 C         142.1901  141.2411  170.1366 C.ar    1  UNL1        0.1656
     12 N         141.8791  140.8050  171.5377 N.ar    1  UNL1       -0.2034
     13 C         140.6292  139.9766  171.4986 C.ar    1  UNL1        0.2213
     14 N         140.1677  139.9007  170.0734 N.ar    1  UNL1       -0.1409
     15 N         141.1325  140.6822  169.2316 N.ar    1  UNL1       -0.2092
     16 C         141.1845  140.9571  167.7579 C.ar    1  UNL1        0.1021
     17 C         144.1621  140.3105  158.7766 C.3     1  UNL1        0.1149
     18 N         143.1396  140.9981  159.6322 N.am    1  UNL1       -0.2757
     19 C         141.7324  140.4810  159.6810 C.3     1  UNL1        0.1149
     20 C         143.5244  142.2026  160.4389 C.2     1  UNL1        0.2312
     21 O         144.9316  142.7197  160.3901 O.2     1  UNL1       -0.2745
     22 C         141.5316  143.8526  160.6764 C.3     1  UNL1        0.1413
     23 N         142.0354  145.0807  159.9776 N.3     1  UNL1       -0.3144
     24 H         143.0544  145.1011  160.0182 H       1  UNL1        0.1193
     25 H         141.6601  145.9109  160.4363 H       1  UNL1        0.1193
     26 C         140.0576  143.5870  160.7570 C.2     1  UNL1        0.2406
     27 O         139.3414  142.9720  159.5913 O.2     1  UNL1       -0.2734
     28 N         139.2996  143.9364  162.0034 N.am    1  UNL1       -0.2756
     29 C         137.8310  143.7304  162.2292 C.3     1  UNL1        0.0964
     30 C         137.5009  144.2198  163.6081 C.3     1  UNL1        0.0585
     31 C         138.7654  144.7282  164.2346 C.3     1  UNL1        0.1824
     32 F         138.8955  145.3097  165.6111 F       1  UNL1       -0.2354
     33 C         139.8771  144.5531  163.2428 C.3     1  UNL1        0.1286
@<TRIPOS>BOND
     1    17    18    1
     2    18    19    1
     3    18    20   am
     4    20    21    2
     5     1    20    1
     6     1     2    1
     7     2     3   ar
     8     3     4   ar
     9     4     5   ar
    10     5     8    1
    11     8     9   ar
    12     9    10   ar
    13    10    11   ar
    14    11    12   ar
    15    12    13   ar
    16    13    14   ar
    17    14    15   ar
    18    15    16   ar
    19     5     6   ar
    20     6     7   ar
    21     1    22    1
    22    22    23    1
    23    22    26    1
    24    26    27    2
    25    26    28   am
    26    28    29    1
    27    29    30    1
    28    30    31    1
    29    31    32    1
    30    31    33    1
    31     7     2   ar
    32    33    28    1
    33    16     8   ar
    34    15    11   ar
    35    23    24    1
    36    23    25    1
@<TRIPOS>MOLECULE
*****
 33 36 0 0 0
SMALL
GASTEIGER

@<TRIPOS>ATOM
      1 C         141.7562  141.9775  161.0116 C.3     1  UNL1        0.1219
      2 C         141.8007  142.0239  162.5102 C.ar    1  UNL1       -0.0121
      3 C         140.6051  142.4986  163.2817 C.ar    1  UNL1       -0.0037
      4 C         140.6497  142.5450  164.7804 C.ar    1  UNL1       -0.0003
      5 C         141.8898  142.1168  165.5075 C.ar    1  UNL1        0.0015
      6 C         143.0854  141.6422  164.7360 C.ar    1  UNL1       -0.0003
      7 C         143.0409  141.5957  163.2374 C.ar    1  UNL1       -0.0037
      8 C         141.9344  142.1633  167.0061 C.ar    1  UNL1        0.0193
      9 C         143.2498  142.3020  167.7134 C.ar    1  UNL1        0.0047
     10 C         143.2944  142.3484  169.2121 C.ar    1  UNL1        0.0389
     11 C         142.0234  142.2561  170.0034 C.ar    1  UNL1        0.1656
     12 N         141.7566  142.2738  171.4793 N.ar    1  UNL1       -0.2034
     13 C         140.2762  142.1459  171.6842 C.ar    1  UNL1        0.2213
     14 N         139.6281  142.0492  170.3349 N.ar    1  UNL1       -0.1409
     15 N         140.7080  142.1173  169.2960 N.ar    1  UNL1       -0.2092
     16 C         140.6634  142.0709  167.7974 C.ar    1  UNL1        0.1021
     17 C         141.5449  145.3313  158.9004 C.3     1  UNL1        0.1149
     18 N         141.1315  144.1318  159.7006 N.am    1  UNL1       -0.2757
     19 C         139.6802  143.8869  159.9898 C.3     1  UNL1        0.1149
     20 C         142.1695  143.1770  160.2115 C.2     1  UNL1        0.2312
     21 O         143.6208  143.4219  159.9222 O.2     1  UNL1       -0.2745
     22 C         141.2983  140.7315  160.3132 C.3     1  UNL1        0.1413
     23 N         142.1802  140.0776  159.2910 N.3     1  UNL1       -0.3144
     24 H         143.0454  140.6098  159.1980 H       1  UNL1        0.1193
     25 H         141.6983  140.0525  158.3924 H       1  UNL1        0.1193
     26 C         139.9588  140.1394  160.6369 C.2     1  UNL1        0.2406
     27 O         138.7376  140.5966  159.8953 O.2     1  UNL1       -0.2734
     28 N         139.8402  139.0900  161.7022 N.am    1  UNL1       -0.2756
     29 C         138.5744  138.4102  162.1332 C.3     1  UNL1        0.0964
     30 C         138.9185  137.4363  163.2209 C.3     1  UNL1        0.0585
     31 C         140.3969  137.5142  163.4621 C.3     1  UNL1        0.1824
     32 F         141.1700  136.7111  164.4657 F       1  UNL1       -0.2354
     33 C         140.9666  138.5362  162.5235 C.3     1  UNL1        0.1286
@<TRIPOS>BOND
     1    17    18    1
     2    18    19    1
     3    18    20   am
     4    20    21    2
     5     1    20    1
     6     1     2    1
     7     2     3   ar
     8     3     4   ar
     9     4     5   ar
    10     5     8    1
    11     8     9   ar
    12     9    10   ar
    13    10    11   ar
    14    11    12   ar
    15    12    13   ar
    16    13    14   ar
    17    14    15   ar
    18    15    16   ar
    19     5     6   ar
    20     6     7   ar
    21     1    22    1
    22    22    23    1
    23    22    26    1
    24    26    27    2
    25    26    28   am
    26    28    29    1
    27    29    30    1
    28    30    31    1
    29    31    32    1
    30    31    33    1
    31     7     2   ar
    32    33    28    1
    33    16     8   ar
    34    15    11   ar
    35    23    24    1
    36    23    25    1
@<TRIPOS>MOLECULE
*****
 33 36 0 0 0
SMALL
GASTEIGER

@<TRIPOS>ATOM
      1 C         141.1426  141.7943  164.2923 C.3     1  UNL1        0.1219
      2 C         141.1715  141.0035  163.0180 C.ar    1  UNL1       -0.0121
      3 C         140.7253  141.6356  161.7329 C.ar    1  UNL1       -0.0037
      4 C         140.7542  140.8447  160.4586 C.ar    1  UNL1       -0.0003
      5 C         141.2292  139.4221  160.4694 C.ar    1  UNL1        0.0015
      6 C         141.6753  138.7900  161.7544 C.ar    1  UNL1       -0.0003
      7 C         141.6465  139.5808  163.0287 C.ar    1  UNL1       -0.0037
      8 C         141.2580  138.6312  159.1950 C.ar    1  UNL1        0.0193
      9 C         142.5348  137.9893  158.7395 C.ar    1  UNL1        0.0047
     10 C         142.5637  137.1984  157.4651 C.ar    1  UNL1        0.0389
     11 C         141.3156  137.0497  156.6464 C.ar    1  UNL1        0.1656
     12 N         141.0408  136.3354  155.3564 N.ar    1  UNL1       -0.2034
     13 C         139.5941  136.5359  155.0147 C.ar    1  UNL1        0.2213
     14 N         138.9748  137.3742  156.0935 N.ar    1  UNL1       -0.1409
     15 N         140.0388  137.6917  157.1020 N.ar    1  UNL1       -0.2092
     16 C         140.0100  138.4825  158.3763 C.ar    1  UNL1        0.1021
     17 C         138.1476  144.3752  164.6366 C.3     1  UNL1        0.1149
     18 N         138.9032  143.0809  164.5740 N.am    1  UNL1       -0.2757
     19 C         138.1749  141.7789  164.7306 C.3     1  UNL1        0.1149
     20 C         140.3870  143.0885  164.3549 C.2     1  UNL1        0.2312
     21 O         141.1153  144.3905  164.1984 O.2     1  UNL1       -0.2745
     22 C         141.8694  141.2907  165.5040 C.3     1  UNL1        0.1413
     23 N         143.3536  141.4757  165.6191 N.3     1  UNL1       -0.3144
     24 H         143.7012  141.9588  164.7907 H       1  UNL1        0.1193
     25 H         143.8049  140.5642  165.6955 H       1  UNL1        0.1193
     26 C         141.1122  140.6023  166.6005 C.2     1  UNL1        0.2406
     27 O         140.7730  139.1463  166.4782 O.2     1  UNL1       -0.2734
     28 N         140.6939  141.3699  167.8196 N.am    1  UNL1       -0.2756
     29 C         139.9360  140.8193  168.9911 C.3     1  UNL1        0.0964
     30 C         139.7339  141.9319  169.9767 C.3     1  UNL1        0.0585
     31 C         140.3669  143.1700  169.4142 C.3     1  UNL1        0.1824
     32 F         140.4007  144.5187  170.0698 F       1  UNL1       -0.2354
     33 C         140.9603  142.8227  168.0811 C.3     1  UNL1        0.1286
@<TRIPOS>BOND
     1    17    18    1
     2    18    19    1
     3    18    20   am
     4    20    21    2
     5     1    20    1
     6     1     2    1
     7     2     3   ar
     8     3     4   ar
     9     4     5   ar
    10     5     8    1
    11     8     9   ar
    12     9    10   ar
    13    10    11   ar
    14    11    12   ar
    15    12    13   ar
    16    13    14   ar
    17    14    15   ar
    18    15    16   ar
    19     5     6   ar
    20     6     7   ar
    21     1    22    1
    22    22    23    1
    23    22    26    1
    24    26    27    2
    25    26    28   am
    26    28    29    1
    27    29    30    1
    28    30    31    1
    29    31    32    1
    30    31    33    1
    31     7     2   ar
    32    33    28    1
    33    16     8   ar
    34    15    11   ar
    35    23    24    1
    36    23    25    1
@<TRIPOS>MOLECULE
*****
 33 36 0 0 0
SMALL
GASTEIGER

@<TRIPOS>ATOM
      1 C         141.2847  142.5664  162.6157 C.3     1  UNL1        0.1219
      2 C         141.2909  141.5317  161.5298 C.ar    1  UNL1       -0.0121
      3 C         139.9993  140.9337  161.0563 C.ar    1  UNL1       -0.0037
      4 C         140.0056  139.8989  159.9703 C.ar    1  UNL1       -0.0003
      5 C         141.3033  139.4623  159.3579 C.ar    1  UNL1        0.0015
      6 C         142.5949  140.0603  159.8314 C.ar    1  UNL1       -0.0003
      7 C         142.5887  141.0950  160.9173 C.ar    1  UNL1       -0.0037
      8 C         141.3096  138.4275  158.2719 C.ar    1  UNL1        0.0193
      9 C         140.0672  138.1733  157.4710 C.ar    1  UNL1        0.0047
     10 C         140.0734  137.1385  156.3850 C.ar    1  UNL1        0.0389
     11 C         141.3223  136.3580  156.1000 C.ar    1  UNL1        0.1656
     12 N         141.6275  135.2828  155.0997 N.ar    1  UNL1       -0.2034
     13 C         143.0587  134.8725  155.2824 C.ar    1  UNL1        0.2213
     14 N         143.6380  135.6942  156.3956 N.ar    1  UNL1       -0.1409
     15 N         142.5648  136.6123  156.9009 N.ar    1  UNL1       -0.2092
     16 C         142.5585  137.6470  157.9869 C.ar    1  UNL1        0.1021
     17 C         139.8976  146.1933  161.7961 C.3     1  UNL1        0.1149
     18 N         139.9334  144.7358  162.1490 N.am    1  UNL1       -0.2757
     19 C         138.6540  143.9902  162.3881 C.3     1  UNL1        0.1149
     20 C         141.2488  144.0239  162.2628 C.2     1  UNL1        0.2312
     21 O         142.5282  144.7694  162.0237 O.2     1  UNL1       -0.2745
     22 C         141.3144  142.1437  164.0546 C.3     1  UNL1        0.1413
     23 N         142.5431  142.3827  164.8813 N.3     1  UNL1       -0.3144
     24 H         143.2543  142.8383  164.3094 H       1  UNL1        0.1193
     25 H         142.9016  141.4911  165.2232 H       1  UNL1        0.1193
     26 C         140.1156  141.4820  164.6668 C.2     1  UNL1        0.2406
     27 O         139.0217  142.3164  165.2643 O.2     1  UNL1       -0.2734
     28 N         140.0107  139.9856  164.6816 N.am    1  UNL1       -0.2756
     29 C         138.8781  139.1869  165.2553 C.3     1  UNL1        0.0964
     30 C         139.1873  137.7330  165.0535 C.3     1  UNL1        0.0585
     31 C         140.5110  137.6333  164.3550 C.3     1  UNL1        0.1824
     32 F         141.2041  136.3642  163.9564 F       1  UNL1       -0.2354
     33 C         141.0199  139.0255  164.1252 C.3     1  UNL1        0.1286
@<TRIPOS>BOND
     1    17    18    1
     2    18    19    1
     3    18    20   am
     4    20    21    2
     5     1    20    1
     6     1     2    1
     7     2     3   ar
     8     3     4   ar
     9     4     5   ar
    10     5     8    1
    11     8     9   ar
    12     9    10   ar
    13    10    11   ar
    14    11    12   ar
    15    12    13   ar
    16    13    14   ar
    17    14    15   ar
    18    15    16   ar
    19     5     6   ar
    20     6     7   ar
    21     1    22    1
    22    22    23    1
    23    22    26    1
    24    26    27    2
    25    26    28   am
    26    28    29    1
    27    29    30    1
    28    30    31    1
    29    31    32    1
    30    31    33    1
    31     7     2   ar
    32    33    28    1
    33    16     8   ar
    34    15    11   ar
    35    23    24    1
    36    23    25    1
@<TRIPOS>MOLECULE
*****
 33 36 0 0 0
SMALL
GASTEIGER

@<TRIPOS>ATOM
      1 C         140.6180  142.6498  161.0416 C.3     1  UNL1        0.1219
      2 C         140.7936  141.4595  160.1460 C.ar    1  UNL1       -0.0121
      3 C         139.8484  141.2348  159.0032 C.ar    1  UNL1       -0.0037
      4 C         140.0241  140.0444  158.1075 C.ar    1  UNL1       -0.0003
      5 C         141.1449  139.0788  158.3546 C.ar    1  UNL1        0.0015
      6 C         142.0902  139.3035  159.4974 C.ar    1  UNL1       -0.0003
      7 C         141.9145  140.4938  160.3931 C.ar    1  UNL1       -0.0037
      8 C         141.3206  137.8884  157.4589 C.ar    1  UNL1        0.0193
      9 C         140.2740  137.5581  156.4365 C.ar    1  UNL1        0.0047
     10 C         140.4497  136.3677  155.5408 C.ar    1  UNL1        0.0389
     11 C         141.6721  135.5077  155.6677 C.ar    1  UNL1        0.1656
     12 N         142.1164  134.2798  154.9296 N.ar    1  UNL1       -0.2034
     13 C         143.4376  133.8512  155.4958 C.ar    1  UNL1        0.2213
     14 N         143.8099  134.8143  156.5839 N.ar    1  UNL1       -0.1409
     15 N         142.7188  135.8381  156.6901 N.ar    1  UNL1       -0.2092
     16 C         142.5430  137.0284  157.5857 C.ar    1  UNL1        0.1021
     17 C         138.0375  142.2605  164.0315 C.3     1  UNL1        0.1149
     18 N         139.2821  142.1201  163.2061 N.am    1  UNL1       -0.2757
     19 C         140.4352  141.3098  163.7195 C.3     1  UNL1        0.1149
     20 C         139.3735  142.7901  161.8671 C.2     1  UNL1        0.2312
     21 O         138.2203  143.6004  161.3537 O.2     1  UNL1       -0.2745
     22 C         141.6869  143.6998  161.1118 C.3     1  UNL1        0.1413
     23 N         142.3795  144.1498  159.8596 N.3     1  UNL1       -0.3144
     24 H         142.0015  143.6410  159.0604 H       1  UNL1        0.1193
     25 H         143.3794  143.9644  159.9387 H       1  UNL1        0.1193
     26 C         142.0632  144.2997  162.4340 C.2     1  UNL1        0.2406
     27 O         141.3238  145.4977  162.9518 O.2     1  UNL1       -0.2734
     28 N         143.1791  143.7017  163.2386 N.am    1  UNL1       -0.2756
     29 C         143.6653  144.1900  164.5710 C.3     1  UNL1        0.0964
     30 C         144.7914  143.3005  165.0079 C.3     1  UNL1        0.0585
     31 C         145.0010  142.2625  163.9456 C.3     1  UNL1        0.1824
     32 F         146.0270  141.1686  163.9721 F       1  UNL1       -0.2354
     33 C         144.0046  142.5105  162.8521 C.3     1  UNL1        0.1286
@<TRIPOS>BOND
     1    17    18    1
     2    18    19    1
     3    18    20   am
     4    20    21    2
     5     1    20    1
     6     1     2    1
     7     2     3   ar
     8     3     4   ar
     9     4     5   ar
    10     5     8    1
    11     8     9   ar
    12     9    10   ar
    13    10    11   ar
    14    11    12   ar
    15    12    13   ar
    16    13    14   ar
    17    14    15   ar
    18    15    16   ar
    19     5     6   ar
    20     6     7   ar
    21     1    22    1
    22    22    23    1
    23    22    26    1
    24    26    27    2
    25    26    28   am
    26    28    29    1
    27    29    30    1
    28    30    31    1
    29    31    32    1
    30    31    33    1
    31     7     2   ar
    32    33    28    1
    33    16     8   ar
    34    15    11   ar
    35    23    24    1
    36    23    25    1
