@<TRIPOS>MOLECULE
*****
 33 36 0 0 0
SMALL
GASTEIGER

@<TRIPOS>ATOM
      1 C         140.0271  143.7250  161.2381 C.ar    1  UNL1        0.0525
      2 C         140.5323  143.8914  162.6406 C.ar    1  UNL1        0.0192
      3 C         139.7243  143.3766  163.7947 C.ar    1  UNL1        0.0508
      4 C         138.4112  142.6954  163.5464 C.ar    1  UNL1        0.0178
      5 C         137.9060  142.5290  162.1439 C.ar    1  UNL1        0.0382
      6 C         138.7140  143.0438  160.9897 C.ar    1  UNL1        0.1400
      7 C         142.7938  142.4209  160.1001 C.3     1  UNL1        0.1537
      8 N         142.1067  143.6404  159.5608 N.ar    1  UNL1       -0.2487
      9 N         142.5708  144.4745  158.4037 N.ar    1  UNL1       -0.1676
     10 C         141.5859  145.5895  158.2116 C.ar    1  UNL1        0.1217
     11 C         140.5132  145.4444  159.2499 C.ar    1  UNL1        0.0413
     12 C         140.8351  144.2398  160.0838 C.ar    1  UNL1        0.0825
     13 N         140.2295  143.5430  165.1973 N.am    1  UNL1       -0.2803
     14 C         140.8003  142.3672  165.9333 C.2     1  UNL1        0.2517
     15 O         140.8660  141.0250  165.2667 O.2     1  UNL1       -0.2697
     16 H         140.1863  144.4239  165.6348 H       1  UNL1        0.1552
     17 C         141.3054  142.5335  167.3358 C.ar    1  UNL1        0.0812
     18 C         140.3876  143.0406  168.4084 C.ar    1  UNL1        0.0091
     19 C         140.8928  143.2069  169.8110 C.ar    1  UNL1        0.0299
     20 C         142.3158  142.8661  170.1409 C.ar    1  UNL1        0.1424
     21 F         142.8209  143.0325  171.5434 F       1  UNL1       -0.2041
     22 C         143.2336  142.3590  169.0684 C.ar    1  UNL1        0.0594
     23 C         142.7285  142.1927  167.6658 C.ar    1  UNL1        0.1467
     24 F         143.6464  141.6856  166.5933 F       1  UNL1       -0.2039
     25 O         138.2088  142.8774  159.5871 O.3     1  UNL1       -0.4739
     26 C         138.5399  141.6360  158.8130 C.3     1  UNL1        0.2226
     27 C         137.9147  140.3264  159.1925 C.3     1  UNL1        0.1202
     28 N         138.5655  139.4563  160.2266 N.3     1  UNL1       -0.2653
     29 C         140.0281  139.1389  160.1270 C.3     1  UNL1        0.1047
     30 C         140.6789  138.2688  161.1611 C.3     1  UNL1        0.1595
     31 O         139.8670  137.7160  162.2948 O.3     1  UNL1       -0.3508
     32 C         138.4043  138.0333  162.3944 C.3     1  UNL1        0.1595
     33 C         137.7535  138.9034  161.3603 C.3     1  UNL1        0.1047
@<TRIPOS>BOND
     1     7     8    1
     2     8     9   ar
     3     9    10   ar
     4    10    11   ar
     5    11    12   ar
     6    12     1    1
     7     1     2   ar
     8     2     3   ar
     9     3    13    1
    10    13    14   am
    11    14    15    2
    12    14    17    1
    13    17    18   ar
    14    18    19   ar
    15    19    20   ar
    16    20    21    1
    17    20    22   ar
    18    22    23   ar
    19    23    24    1
    20     3     4   ar
    21     4     5   ar
    22     5     6   ar
    23     6    25    1
    24    25    26    1
    25    26    27    1
    26    27    28    1
    27    28    29    1
    28    29    30    1
    29    30    31    1
    30    31    32    1
    31    32    33    1
    32    12     8   ar
    33     6     1   ar
    34    33    28    1
    35    23    17   ar
    36    13    16    1
@<TRIPOS>MOLECULE
*****
 33 36 0 0 0
SMALL
GASTEIGER

@<TRIPOS>ATOM
      1 C         140.0390  142.8619  161.9302 C.ar    1  UNL1        0.0525
      2 C         140.4942  142.7332  163.3537 C.ar    1  UNL1        0.0192
      3 C         139.5152  142.3459  164.4220 C.ar    1  UNL1        0.0508
      4 C         138.0809  142.0873  164.0670 C.ar    1  UNL1        0.0178
      5 C         137.6257  142.2161  162.6436 C.ar    1  UNL1        0.0382
      6 C         138.6047  142.6033  161.5752 C.ar    1  UNL1        0.1400
      7 C         140.2058  145.7607  160.4407 C.3     1  UNL1        0.1537
      8 N         141.0947  144.5816  160.1771 N.ar    1  UNL1       -0.2487
      9 N         142.2163  144.5279  159.1826 N.ar    1  UNL1       -0.1676
     10 C         142.8329  143.1622  159.2526 C.ar    1  UNL1        0.1217
     11 C         142.0924  142.3720  160.2904 C.ar    1  UNL1        0.0413
     12 C         141.0181  143.2492  160.8618 C.ar    1  UNL1        0.0825
     13 N         139.9704  142.2172  165.8455 N.am    1  UNL1       -0.2803
     14 C         140.5866  140.9356  166.3229 C.2     1  UNL1        0.2517
     15 O         140.7476  139.7827  165.3767 O.2     1  UNL1       -0.2697
     16 H         139.8647  142.9738  166.4665 H       1  UNL1        0.1552
     17 C         141.0418  140.8068  167.7463 C.ar    1  UNL1        0.0812
     18 C         142.3953  141.3122  168.1495 C.ar    1  UNL1        0.0091
     19 C         142.8505  141.1834  169.5731 C.ar    1  UNL1        0.0299
     20 C         141.9522  140.5492  170.5932 C.ar    1  UNL1        0.1424
     21 F         142.4074  140.4204  172.0167 F       1  UNL1       -0.2041
     22 C         140.5987  140.0438  170.1900 C.ar    1  UNL1        0.0594
     23 C         140.1435  140.1726  168.7666 C.ar    1  UNL1        0.1467
     24 F         138.7899  139.6672  168.3633 F       1  UNL1       -0.2039
     25 O         138.1495  142.7321  160.1517 O.3     1  UNL1       -0.4739
     26 C         138.3916  141.6129  159.1828 C.3     1  UNL1        0.2226
     27 C         137.8802  140.2355  159.4848 C.3     1  UNL1        0.1202
     28 N         138.6196  139.3556  160.4487 N.3     1  UNL1       -0.2653
     29 C         140.0872  139.1071  160.2633 C.3     1  UNL1        0.1047
     30 C         140.8266  138.2272  161.2271 C.3     1  UNL1        0.1595
     31 O         140.0984  137.5958  162.3764 O.3     1  UNL1       -0.3508
     32 C         138.6307  137.8442  162.5619 C.3     1  UNL1        0.1595
     33 C         137.8913  138.7241  161.5980 C.3     1  UNL1        0.1047
@<TRIPOS>BOND
     1     7     8    1
     2     8     9   ar
     3     9    10   ar
     4    10    11   ar
     5    11    12   ar
     6    12     1    1
     7     1     2   ar
     8     2     3   ar
     9     3    13    1
    10    13    14   am
    11    14    15    2
    12    14    17    1
    13    17    18   ar
    14    18    19   ar
    15    19    20   ar
    16    20    21    1
    17    20    22   ar
    18    22    23   ar
    19    23    24    1
    20     3     4   ar
    21     4     5   ar
    22     5     6   ar
    23     6    25    1
    24    25    26    1
    25    26    27    1
    26    27    28    1
    27    28    29    1
    28    29    30    1
    29    30    31    1
    30    31    32    1
    31    32    33    1
    32    12     8   ar
    33     6     1   ar
    34    33    28    1
    35    23    17   ar
    36    13    16    1
@<TRIPOS>MOLECULE
*****
 33 36 0 0 0
SMALL
GASTEIGER

@<TRIPOS>ATOM
      1 C         141.0003  139.3271  161.4399 C.ar    1  UNL1        0.0525
      2 C         141.1831  139.6429  162.8948 C.ar    1  UNL1        0.0192
      3 C         140.1215  139.2628  163.8839 C.ar    1  UNL1        0.0508
      4 C         138.8770  138.5669  163.4181 C.ar    1  UNL1        0.0178
      5 C         138.6942  138.2510  161.9633 C.ar    1  UNL1        0.0382
      6 C         139.7558  138.6311  160.9741 C.ar    1  UNL1        0.1400
      7 C         143.1542  137.2985  160.0632 C.3     1  UNL1        0.1537
      8 N         143.0520  138.7747  159.8179 N.ar    1  UNL1       -0.2487
      9 N         143.9218  139.5777  158.8968 N.ar    1  UNL1       -0.1676
     10 C         143.4694  141.0065  158.9602 C.ar    1  UNL1        0.1217
     11 C         142.3199  141.0865  159.9206 C.ar    1  UNL1        0.0413
     12 C         142.0619  139.7071  160.4507 C.ar    1  UNL1        0.0825
     13 N         140.3043  139.5786  165.3389 N.am    1  UNL1       -0.2803
     14 C         139.8156  140.8854  165.8899 C.2     1  UNL1        0.2517
     15 O         139.1441  141.8763  164.9858 O.2     1  UNL1       -0.2697
     16 H         140.7451  138.9283  165.9322 H       1  UNL1        0.1552
     17 C         139.9984  141.2012  167.3448 C.ar    1  UNL1        0.0812
     18 C         140.8138  142.3907  167.7573 C.ar    1  UNL1        0.0091
     19 C         140.9966  142.7066  169.2123 C.ar    1  UNL1        0.0299
     20 C         140.3640  141.8329  170.2546 C.ar    1  UNL1        0.1424
     21 F         140.5468  142.1488  171.7095 F       1  UNL1       -0.2041
     22 C         139.5485  140.6435  169.8421 C.ar    1  UNL1        0.0594
     23 C         139.3658  140.3276  168.3872 C.ar    1  UNL1        0.1467
     24 F         138.5503  139.1381  167.9746 F       1  UNL1       -0.2039
     25 O         139.5730  138.3153  159.5191 O.3     1  UNL1       -0.4739
     26 C         139.1389  139.3902  158.5672 C.3     1  UNL1        0.2226
     27 C         138.1429  140.4226  159.0052 C.3     1  UNL1        0.1202
     28 N         138.6161  141.7314  159.5647 N.3     1  UNL1       -0.2653
     29 C         139.3054  142.7224  158.6743 C.3     1  UNL1        0.1047
     30 C         139.7786  144.0312  159.2338 C.3     1  UNL1        0.1595
     31 O         139.5626  144.3491  160.6837 O.3     1  UNL1       -0.3508
     32 C         138.8733  143.3581  161.5742 C.3     1  UNL1        0.1595
     33 C         138.4001  142.0493  161.0147 C.3     1  UNL1        0.1047
@<TRIPOS>BOND
     1     7     8    1
     2     8     9   ar
     3     9    10   ar
     4    10    11   ar
     5    11    12   ar
     6    12     1    1
     7     1     2   ar
     8     2     3   ar
     9     3    13    1
    10    13    14   am
    11    14    15    2
    12    14    17    1
    13    17    18   ar
    14    18    19   ar
    15    19    20   ar
    16    20    21    1
    17    20    22   ar
    18    22    23   ar
    19    23    24    1
    20     3     4   ar
    21     4     5   ar
    22     5     6   ar
    23     6    25    1
    24    25    26    1
    25    26    27    1
    26    27    28    1
    27    28    29    1
    28    29    30    1
    29    30    31    1
    30    31    32    1
    31    32    33    1
    32    12     8   ar
    33     6     1   ar
    34    33    28    1
    35    23    17   ar
    36    13    16    1
@<TRIPOS>MOLECULE
*****
 33 36 0 0 0
SMALL
GASTEIGER

@<TRIPOS>ATOM
      1 C         142.4856  142.5723  163.0266 C.ar    1  UNL1        0.0525
      2 C         142.4348  143.1643  161.6493 C.ar    1  UNL1        0.0192
      3 C         141.8920  144.5479  161.4473 C.ar    1  UNL1        0.0508
      4 C         141.4000  145.3396  162.6225 C.ar    1  UNL1        0.0178
      5 C         141.4507  144.7476  163.9998 C.ar    1  UNL1        0.0382
      6 C         141.9935  143.3639  164.2018 C.ar    1  UNL1        0.1400
      7 C         145.5707  141.8116  163.7703 C.3     1  UNL1        0.1537
      8 N         144.4464  140.8389  163.5705 N.ar    1  UNL1       -0.2487
      9 N         144.5428  139.3459  163.6775 N.ar    1  UNL1       -0.1676
     10 C         143.1843  138.7727  163.4017 C.ar    1  UNL1        0.1217
     11 C         142.2484  139.9115  163.1243 C.ar    1  UNL1        0.0413
     12 C         143.0284  141.1886  163.2287 C.ar    1  UNL1        0.0825
     13 N         141.8413  145.1400  160.0699 N.am    1  UNL1       -0.2803
     14 C         140.6461  144.9027  159.1952 C.2     1  UNL1        0.2517
     15 O         139.5017  144.0733  159.6977 O.2     1  UNL1       -0.2697
     16 H         142.5924  145.6843  159.7401 H       1  UNL1        0.1552
     17 C         140.5953  145.4947  157.8179 C.ar    1  UNL1        0.0812
     18 C         139.5639  146.5316  157.4848 C.ar    1  UNL1        0.0091
     19 C         139.5131  147.1236  156.1075 C.ar    1  UNL1        0.0299
     20 C         140.4938  146.6787  155.0633 C.ar    1  UNL1        0.1424
     21 F         140.4430  147.2708  153.6861 F       1  UNL1       -0.2041
     22 C         141.5252  145.6418  155.3964 C.ar    1  UNL1        0.0594
     23 C         141.5760  145.0498  156.7736 C.ar    1  UNL1        0.1467
     24 F         142.6075  144.0129  157.1067 F       1  UNL1       -0.2039
     25 O         142.0442  142.7718  165.5791 O.3     1  UNL1       -0.4739
     26 C         140.7717  142.4889  166.3212 C.3     1  UNL1        0.2226
     27 C         139.9275  141.3092  165.9397 C.3     1  UNL1        0.1202
     28 N         139.0187  141.3910  164.7492 N.3     1  UNL1       -0.2653
     29 C         138.6726  140.1487  163.9831 C.3     1  UNL1        0.1047
     30 C         137.7638  140.2304  162.7926 C.3     1  UNL1        0.1595
     31 O         137.2010  141.5545  162.3681 O.3     1  UNL1       -0.3508
     32 C         137.5471  142.7968  163.1342 C.3     1  UNL1        0.1595
     33 C         138.4559  142.7151  164.3247 C.3     1  UNL1        0.1047
@<TRIPOS>BOND
     1     7     8    1
     2     8     9   ar
     3     9    10   ar
     4    10    11   ar
     5    11    12   ar
     6    12     1    1
     7     1     2   ar
     8     2     3   ar
     9     3    13    1
    10    13    14   am
    11    14    15    2
    12    14    17    1
    13    17    18   ar
    14    18    19   ar
    15    19    20   ar
    16    20    21    1
    17    20    22   ar
    18    22    23   ar
    19    23    24    1
    20     3     4   ar
    21     4     5   ar
    22     5     6   ar
    23     6    25    1
    24    25    26    1
    25    26    27    1
    26    27    28    1
    27    28    29    1
    28    29    30    1
    29    30    31    1
    30    31    32    1
    31    32    33    1
    32    12     8   ar
    33     6     1   ar
    34    33    28    1
    35    23    17   ar
    36    13    16    1
@<TRIPOS>MOLECULE
*****
 33 36 0 0 0
SMALL
GASTEIGER

@<TRIPOS>ATOM
      1 C         142.3209  142.9202  163.1429 C.ar    1  UNL1        0.0525
      2 C         142.3579  143.4857  161.7541 C.ar    1  UNL1        0.0192
      3 C         141.6012  144.7409  161.4351 C.ar    1  UNL1        0.0508
      4 C         140.8074  145.4305  162.5048 C.ar    1  UNL1        0.0178
      5 C         140.7704  144.8651  163.8936 C.ar    1  UNL1        0.0382
      6 C         141.5271  143.6099  164.2126 C.ar    1  UNL1        0.1400
      7 C         141.1532  139.8782  162.9635 C.3     1  UNL1        0.1537
      8 N         142.5410  140.2668  163.3796 N.ar    1  UNL1       -0.2487
      9 N         143.6356  139.3253  163.7863 N.ar    1  UNL1       -0.1676
     10 C         144.8490  140.1418  164.1201 C.ar    1  UNL1        0.1217
     11 C         144.5041  141.5877  163.9197 C.ar    1  UNL1        0.0413
     12 C         143.0777  141.6650  163.4621 C.ar    1  UNL1        0.0825
     13 N         141.6382  145.3064  160.0462 N.am    1  UNL1       -0.2803
     14 C         140.5692  144.9417  159.0592 C.2     1  UNL1        0.2517
     15 O         139.4633  144.0113  159.4610 O.2     1  UNL1       -0.2697
     16 H         142.3641  145.9170  159.7825 H       1  UNL1        0.1552
     17 C         140.6062  145.5072  157.6704 C.ar    1  UNL1        0.0812
     18 C         139.5906  146.5273  157.2487 C.ar    1  UNL1        0.0091
     19 C         139.6276  147.0928  155.8598 C.ar    1  UNL1        0.0299
     20 C         140.6801  146.6382  154.8927 C.ar    1  UNL1        0.1424
     21 F         140.7171  147.2037  153.5039 F       1  UNL1       -0.2041
     22 C         141.6957  145.6180  155.3144 C.ar    1  UNL1        0.0594
     23 C         141.6588  145.0525  156.7032 C.ar    1  UNL1        0.1467
     24 F         142.6744  144.0323  157.1248 F       1  UNL1       -0.2039
     25 O         141.4901  143.0443  165.6015 O.3     1  UNL1       -0.4739
     26 C         140.3171  142.2215  166.0452 C.3     1  UNL1        0.2226
     27 C         140.2407  141.7253  167.4587 C.3     1  UNL1        0.1202
     28 N         141.2025  140.6794  167.9394 N.3     1  UNL1       -0.2653
     29 C         141.2624  140.3287  169.3965 C.3     1  UNL1        0.1047
     30 C         142.2242  139.2827  169.8772 C.3     1  UNL1        0.1595
     31 O         143.1259  138.5876  168.9008 O.3     1  UNL1       -0.3508
     32 C         143.0660  138.9383  167.4436 C.3     1  UNL1        0.1595
     33 C         142.1043  139.9842  166.9629 C.3     1  UNL1        0.1047
@<TRIPOS>BOND
     1     7     8    1
     2     8     9   ar
     3     9    10   ar
     4    10    11   ar
     5    11    12   ar
     6    12     1    1
     7     1     2   ar
     8     2     3   ar
     9     3    13    1
    10    13    14   am
    11    14    15    2
    12    14    17    1
    13    17    18   ar
    14    18    19   ar
    15    19    20   ar
    16    20    21    1
    17    20    22   ar
    18    22    23   ar
    19    23    24    1
    20     3     4   ar
    21     4     5   ar
    22     5     6   ar
    23     6    25    1
    24    25    26    1
    25    26    27    1
    26    27    28    1
    27    28    29    1
    28    29    30    1
    29    30    31    1
    30    31    32    1
    31    32    33    1
    32    12     8   ar
    33     6     1   ar
    34    33    28    1
    35    23    17   ar
    36    13    16    1
@<TRIPOS>MOLECULE
*****
 33 36 0 0 0
SMALL
GASTEIGER

@<TRIPOS>ATOM
      1 C         138.7759  140.4827  163.6836 C.ar    1  UNL1        0.0525
      2 C         139.1868  139.5335  162.5973 C.ar    1  UNL1        0.0192
      3 C         138.9140  139.8730  161.1619 C.ar    1  UNL1        0.0508
      4 C         138.2304  141.1617  160.8129 C.ar    1  UNL1        0.0178
      5 C         137.8195  142.1109  161.8991 C.ar    1  UNL1        0.0382
      6 C         138.0922  141.7714  163.3345 C.ar    1  UNL1        0.1400
      7 C         141.5223  141.1358  165.3209 C.3     1  UNL1        0.1537
      8 N         140.3109  140.4434  165.8716 N.ar    1  UNL1       -0.2487
      9 N         140.1493  139.9297  167.2716 N.ar    1  UNL1       -0.1676
     10 C         138.7870  139.3120  167.3843 C.ar    1  UNL1        0.1217
     11 C         138.1067  139.4440  166.0540 C.ar    1  UNL1        0.0413
     12 C         139.0486  140.1433  165.1191 C.ar    1  UNL1        0.0825
     13 N         139.3250  138.9237  160.0756 N.am    1  UNL1       -0.2803
     14 C         140.5491  139.2064  159.2560 C.2     1  UNL1        0.2517
     15 O         141.3623  140.4383  159.5229 O.2     1  UNL1       -0.2697
     16 H         138.7912  138.1152  159.9004 H       1  UNL1        0.1552
     17 C         140.9600  138.2572  158.1697 C.ar    1  UNL1        0.0812
     18 C         139.9744  137.8546  157.1130 C.ar    1  UNL1        0.0091
     19 C         140.3854  136.9054  156.0267 C.ar    1  UNL1        0.0299
     20 C         141.7819  136.3588  155.9970 C.ar    1  UNL1        0.1424
     21 F         142.1929  135.4097  154.9107 F       1  UNL1       -0.2041
     22 C         142.7675  136.7614  157.0537 C.ar    1  UNL1        0.0594
     23 C         142.3566  137.7106  158.1400 C.ar    1  UNL1        0.1467
     24 F         143.3422  138.1132  159.1967 F       1  UNL1       -0.2039
     25 O         137.6813  142.7207  164.4209 O.3     1  UNL1       -0.4739
     26 C         137.8851  144.1962  164.2442 C.3     1  UNL1        0.2226
     27 C         139.2532  144.7892  164.4075 C.3     1  UNL1        0.1202
     28 N         140.2063  144.8063  163.2493 N.3     1  UNL1       -0.2653
     29 C         141.6400  144.4148  163.4521 C.3     1  UNL1        0.1047
     30 C         142.5932  144.4318  162.2940 C.3     1  UNL1        0.1595
     31 O         142.1126  144.8403  160.9331 O.3     1  UNL1       -0.3508
     32 C         140.6788  145.2319  160.7302 C.3     1  UNL1        0.1595
     33 C         139.7257  145.2148  161.8884 C.3     1  UNL1        0.1047
@<TRIPOS>BOND
     1     7     8    1
     2     8     9   ar
     3     9    10   ar
     4    10    11   ar
     5    11    12   ar
     6    12     1    1
     7     1     2   ar
     8     2     3   ar
     9     3    13    1
    10    13    14   am
    11    14    15    2
    12    14    17    1
    13    17    18   ar
    14    18    19   ar
    15    19    20   ar
    16    20    21    1
    17    20    22   ar
    18    22    23   ar
    19    23    24    1
    20     3     4   ar
    21     4     5   ar
    22     5     6   ar
    23     6    25    1
    24    25    26    1
    25    26    27    1
    26    27    28    1
    27    28    29    1
    28    29    30    1
    29    30    31    1
    30    31    32    1
    31    32    33    1
    32    12     8   ar
    33     6     1   ar
    34    33    28    1
    35    23    17   ar
    36    13    16    1
@<TRIPOS>MOLECULE
*****
 33 36 0 0 0
SMALL
GASTEIGER

@<TRIPOS>ATOM
      1 C         142.0513  143.5935  162.7719 C.ar    1  UNL1        0.0525
      2 C         142.1677  144.1064  161.3671 C.ar    1  UNL1        0.0192
      3 C         141.1966  145.1309  160.8599 C.ar    1  UNL1        0.0508
      4 C         140.1090  145.6425  161.7574 C.ar    1  UNL1        0.0178
      5 C         139.9926  145.1296  163.1622 C.ar    1  UNL1        0.0382
      6 C         140.9637  144.1051  163.6694 C.ar    1  UNL1        0.1400
      7 C         141.8305  140.3654  162.3472 C.3     1  UNL1        0.1537
      8 N         142.9209  141.0852  163.0840 N.ar    1  UNL1       -0.2487
      9 N         144.1013  140.4476  163.7549 N.ar    1  UNL1       -0.1676
     10 C         144.9324  141.5374  164.3648 C.ar    1  UNL1        0.1217
     11 C         144.2655  142.8484  164.0708 C.ar    1  UNL1        0.0413
     12 C         143.0224  142.5690  163.2792 C.ar    1  UNL1        0.0825
     13 N         141.3130  145.6439  159.4551 N.am    1  UNL1       -0.2803
     14 C         140.3998  145.1192  158.3870 C.2     1  UNL1        0.2517
     15 O         139.3702  144.0815  158.7238 O.2     1  UNL1       -0.2697
     16 H         141.9887  146.3249  159.2342 H       1  UNL1        0.1552
     17 C         140.5162  145.6321  156.9823 C.ar    1  UNL1        0.0812
     18 C         141.3731  144.9067  155.9876 C.ar    1  UNL1        0.0091
     19 C         141.4894  145.4197  154.5828 C.ar    1  UNL1        0.0299
     20 C         140.7489  146.6580  154.1728 C.ar    1  UNL1        0.1424
     21 F         140.8652  147.1709  152.7680 F       1  UNL1       -0.2041
     22 C         139.8920  147.3834  155.1675 C.ar    1  UNL1        0.0594
     23 C         139.7756  146.8705  156.5722 C.ar    1  UNL1        0.1467
     24 F         138.9187  147.5959  157.5670 F       1  UNL1       -0.2039
     25 O         140.8473  143.5921  165.0742 O.3     1  UNL1       -0.4739
     26 C         140.0982  142.3220  165.3491 C.3     1  UNL1        0.2226
     27 C         138.7931  142.0566  164.6591 C.3     1  UNL1        0.1202
     28 N         138.5887  140.7740  163.9086 N.3     1  UNL1       -0.2653
     29 C         139.0174  139.4721  164.5178 C.3     1  UNL1        0.1047
     30 C         138.8130  138.1895  163.7674 C.3     1  UNL1        0.1595
     31 O         138.1800  138.2089  162.4077 O.3     1  UNL1       -0.3508
     32 C         137.7513  139.5108  161.7984 C.3     1  UNL1        0.1595
     33 C         137.9556  140.7934  162.5488 C.3     1  UNL1        0.1047
@<TRIPOS>BOND
     1     7     8    1
     2     8     9   ar
     3     9    10   ar
     4    10    11   ar
     5    11    12   ar
     6    12     1    1
     7     1     2   ar
     8     2     3   ar
     9     3    13    1
    10    13    14   am
    11    14    15    2
    12    14    17    1
    13    17    18   ar
    14    18    19   ar
    15    19    20   ar
    16    20    21    1
    17    20    22   ar
    18    22    23   ar
    19    23    24    1
    20     3     4   ar
    21     4     5   ar
    22     5     6   ar
    23     6    25    1
    24    25    26    1
    25    26    27    1
    26    27    28    1
    27    28    29    1
    28    29    30    1
    29    30    31    1
    30    31    32    1
    31    32    33    1
    32    12     8   ar
    33     6     1   ar
    34    33    28    1
    35    23    17   ar
    36    13    16    1
@<TRIPOS>MOLECULE
*****
 33 36 0 0 0
SMALL
GASTEIGER

@<TRIPOS>ATOM
      1 C         142.1064  141.4104  163.1794 C.ar    1  UNL1        0.0525
      2 C         141.6465  140.6702  161.9585 C.ar    1  UNL1        0.0192
      3 C         142.0374  139.2359  161.7594 C.ar    1  UNL1        0.0508
      4 C         142.8884  138.5416  162.7811 C.ar    1  UNL1        0.0178
      5 C         143.3484  139.2818  164.0020 C.ar    1  UNL1        0.0382
      6 C         142.9574  140.7161  164.2011 C.ar    1  UNL1        0.1400
      7 C         144.0041  144.0091  162.6359 C.3     1  UNL1        0.1537
      8 N         142.5877  144.0393  163.1288 N.ar    1  UNL1       -0.2487
      9 N         141.7949  145.2692  163.4584 N.ar    1  UNL1       -0.1676
     10 C         140.4326  144.8349  163.9119 C.ar    1  UNL1        0.1217
     11 C         140.3836  143.3365  163.8626 C.ar    1  UNL1        0.0413
     12 C         141.7155  142.8448  163.3786 C.ar    1  UNL1        0.0825
     13 N         141.5775  138.4957  160.5384 N.am    1  UNL1       -0.2803
     14 C         142.4096  138.5169  159.2906 C.2     1  UNL1        0.2517
     15 O         143.7018  139.2783  159.2638 O.2     1  UNL1       -0.2697
     16 H         140.7294  137.9960  160.5561 H       1  UNL1        0.1552
     17 C         141.9497  137.7767  158.0697 C.ar    1  UNL1        0.0812
     18 C         142.8447  136.7577  157.4289 C.ar    1  UNL1        0.0091
     19 C         142.3847  136.0176  156.2080 C.ar    1  UNL1        0.0299
     20 C         141.0298  136.2964  155.6279 C.ar    1  UNL1        0.1424
     21 F         140.5699  135.5563  154.4070 F       1  UNL1       -0.2041
     22 C         140.1349  137.3154  156.2687 C.ar    1  UNL1        0.0594
     23 C         140.5948  138.0556  157.4896 C.ar    1  UNL1        0.1467
     24 F         139.6998  139.0746  158.1305 F       1  UNL1       -0.2039
     25 O         143.4174  141.4563  165.4220 O.3     1  UNL1       -0.4739
     26 C         142.6394  141.3513  166.7002 C.3     1  UNL1        0.2226
     27 C         142.9751  142.2439  167.8580 C.3     1  UNL1        0.1202
     28 N         142.1553  142.1851  169.1128 N.3     1  UNL1       -0.2653
     29 C         142.5949  141.3192  170.2560 C.3     1  UNL1        0.1047
     30 C         141.7750  141.2604  171.5107 C.3     1  UNL1        0.1595
     31 O         140.5156  142.0674  171.6223 O.3     1  UNL1       -0.3508
     32 C         140.0759  142.9333  170.4790 C.3     1  UNL1        0.1595
     33 C         140.8957  142.9921  169.2243 C.3     1  UNL1        0.1047
@<TRIPOS>BOND
     1     7     8    1
     2     8     9   ar
     3     9    10   ar
     4    10    11   ar
     5    11    12   ar
     6    12     1    1
     7     1     2   ar
     8     2     3   ar
     9     3    13    1
    10    13    14   am
    11    14    15    2
    12    14    17    1
    13    17    18   ar
    14    18    19   ar
    15    19    20   ar
    16    20    21    1
    17    20    22   ar
    18    22    23   ar
    19    23    24    1
    20     3     4   ar
    21     4     5   ar
    22     5     6   ar
    23     6    25    1
    24    25    26    1
    25    26    27    1
    26    27    28    1
    27    28    29    1
    28    29    30    1
    29    30    31    1
    30    31    32    1
    31    32    33    1
    32    12     8   ar
    33     6     1   ar
    34    33    28    1
    35    23    17   ar
    36    13    16    1
@<TRIPOS>MOLECULE
*****
 33 36 0 0 0
SMALL
GASTEIGER

@<TRIPOS>ATOM
      1 C         141.9642  142.9512  161.7168 C.ar    1  UNL1        0.0525
      2 C         141.6041  142.7720  163.1619 C.ar    1  UNL1        0.0192
      3 C         142.6674  142.8601  164.2162 C.ar    1  UNL1        0.0508
      4 C         144.0907  143.1274  163.8255 C.ar    1  UNL1        0.0178
      5 C         144.4508  143.3066  162.3805 C.ar    1  UNL1        0.0382
      6 C         143.3876  143.2185  161.3262 C.ar    1  UNL1        0.1400
      7 C         140.2558  145.4522  160.5018 C.3     1  UNL1        0.1537
      8 N         140.1157  144.0127  160.1039 N.ar    1  UNL1       -0.2487
      9 N         139.1658  143.4701  159.0777 N.ar    1  UNL1       -0.1676
     10 C         139.3639  141.9851  159.0019 C.ar    1  UNL1        0.1217
     11 C         140.4363  141.6100  159.9813 C.ar    1  UNL1        0.0413
     12 C         140.9010  142.8632  160.6624 C.ar    1  UNL1        0.0825
     13 N         142.3073  142.6809  165.6614 N.am    1  UNL1       -0.2803
     14 C         142.3611  141.3174  166.2842 C.2     1  UNL1        0.2517
     15 O         142.7749  140.1330  165.4618 O.2     1  UNL1       -0.2697
     16 H         142.0357  143.4582  166.2010 H       1  UNL1        0.1552
     17 C         142.0010  141.1381  167.7292 C.ar    1  UNL1        0.0812
     18 C         142.8593  141.7485  168.7973 C.ar    1  UNL1        0.0091
     19 C         142.4992  141.5692  170.2424 C.ar    1  UNL1        0.0299
     20 C         141.2809  140.7796  170.6193 C.ar    1  UNL1        0.1424
     21 F         140.9208  140.6004  172.0644 F       1  UNL1       -0.2041
     22 C         140.4225  140.1693  169.5513 C.ar    1  UNL1        0.0594
     23 C         140.7826  140.3486  168.1062 C.ar    1  UNL1        0.1467
     24 F         139.9243  139.7382  167.0381 F       1  UNL1       -0.2039
     25 O         143.7477  143.3977  159.8810 O.3     1  UNL1       -0.4739
     26 C         144.6643  142.4185  159.2095 C.3     1  UNL1        0.2226
     27 C         144.0979  141.3375  158.3374 C.3     1  UNL1        0.1202
     28 N         143.7386  140.0071  158.9297 N.3     1  UNL1       -0.2653
     29 C         144.1186  139.6892  160.3455 C.3     1  UNL1        0.1047
     30 C         143.7592  138.3588  160.9379 C.3     1  UNL1        0.1595
     31 O         143.0199  137.3463  160.1145 O.3     1  UNL1       -0.3508
     32 C         142.6399  137.6641  158.6986 C.3     1  UNL1        0.1595
     33 C         142.9992  138.9945  158.1062 C.3     1  UNL1        0.1047
@<TRIPOS>BOND
     1     7     8    1
     2     8     9   ar
     3     9    10   ar
     4    10    11   ar
     5    11    12   ar
     6    12     1    1
     7     1     2   ar
     8     2     3   ar
     9     3    13    1
    10    13    14   am
    11    14    15    2
    12    14    17    1
    13    17    18   ar
    14    18    19   ar
    15    19    20   ar
    16    20    21    1
    17    20    22   ar
    18    22    23   ar
    19    23    24    1
    20     3     4   ar
    21     4     5   ar
    22     5     6   ar
    23     6    25    1
    24    25    26    1
    25    26    27    1
    26    27    28    1
    27    28    29    1
    28    29    30    1
    29    30    31    1
    30    31    32    1
    31    32    33    1
    32    12     8   ar
    33     6     1   ar
    34    33    28    1
    35    23    17   ar
    36    13    16    1
