@<TRIPOS>MOLECULE
*****
 32 35 0 0 0
SMALL
GASTEIGER

@<TRIPOS>ATOM
      1 C         140.7208  138.9296  164.4066 C.ar    1  UNL1        0.2194
      2 N         141.2613  138.6222  165.7716 N.ar    1  UNL1       -0.1986
      3 C         142.4844  139.3322  166.2713 C.ar    1  UNL1        0.1393
      4 C         143.1671  140.3496  165.4059 C.ar    1  UNL1        0.0689
      5 C         142.6267  140.6570  164.0409 C.ar    1  UNL1        0.1375
      6 N         141.4035  139.9470  163.5412 N.ar    1  UNL1       -0.1988
      7 N         143.3094  141.6744  163.1756 N.pl3   1  UNL1       -0.2879
      8 C         143.9635  141.2511  161.8939 C.3     1  UNL1        0.1242
      9 C         144.6462  142.2685  161.0286 C.3     1  UNL1        0.1636
     10 O         144.6748  143.7092  161.4449 O.3     1  UNL1       -0.3501
     11 C         144.0206  144.1326  162.7266 C.3     1  UNL1        0.1636
     12 C         143.3379  143.1152  163.5920 C.3     1  UNL1        0.1242
     13 N         139.4976  138.2196  163.9068 N.pl3   1  UNL1       -0.2994
     14 H         139.2595  137.3353  164.2682 H       1  UNL1        0.1499
     15 C         138.0778  138.0264  161.7395 C.3     1  UNL1        0.0278
     16 C         138.6370  138.8570  162.8565 C.3     1  UNL1        0.1120
     17 C         138.3357  140.3249  162.9230 C.ar    1  UNL1        0.0769
     18 C         137.9510  140.9531  164.2297 C.ar    1  UNL1        0.0187
     19 C         137.6497  142.4210  164.2962 C.ar    1  UNL1        0.0325
     20 C         137.7329  143.2607  163.0561 C.ar    1  UNL1        0.1592
     21 F         137.4316  144.7286  163.1226 F       1  UNL1       -0.2025
     22 C         138.1176  142.6325  161.7493 C.ar    1  UNL1        0.1280
     23 N         138.4190  141.1646  161.6828 N.ar    1  UNL1       -0.2442
     24 N         143.0250  139.0247  167.6364 N.pl3   1  UNL1       -0.2780
     25 H         143.7018  138.3189  167.7503 H       1  UNL1        0.1555
     26 C         142.5343  139.7927  168.8277 C.ar    1  UNL1        0.1653
     27 N         143.0867  139.7084  170.2198 N.ar    1  UNL1       -0.2217
     28 C         142.2989  140.6435  171.0886 C.ar    1  UNL1        0.1177
     29 C         141.2595  141.3058  170.2336 C.ar    1  UNL1        0.1194
     30 S         141.4050  140.7800  168.8363 S.2     1  UNL1       -0.0409
     31 C         140.2516  142.3164  170.6949 C.1     1  UNL1        0.1086
     32 N         139.2437  143.3270  171.1561 N.1     1  UNL1       -0.1903
@<TRIPOS>BOND
     1    16    15    1
     2    16    13    1
     3    13     1    1
     4     1     2   ar
     5     2     3   ar
     6     3    24    1
     7    24    26    1
     8    26    27   ar
     9    27    28   ar
    10    28    29   ar
    11    29    31    1
    12    31    32    3
    13    29    30   ar
    14     3     4   ar
    15     4     5   ar
    16     5     7    1
    17     7     8    1
    18     8     9    1
    19     9    10    1
    20    10    11    1
    21    11    12    1
    22     5     6   ar
    23    16    17    1
    24    17    18   ar
    25    18    19   ar
    26    19    20   ar
    27    20    21    1
    28    20    22   ar
    29    22    23   ar
    30     6     1   ar
    31    23    17   ar
    32    30    26   ar
    33    12     7    1
    34    13    14    1
    35    24    25    1
@<TRIPOS>MOLECULE
*****
 32 35 0 0 0
SMALL
GASTEIGER

@<TRIPOS>ATOM
      1 C         139.9891  138.9092  165.4996 C.ar    1  UNL1        0.2194
      2 N         141.3520  138.7588  164.8914 N.ar    1  UNL1       -0.1986
      3 C         142.5588  139.2727  165.6190 C.ar    1  UNL1        0.1393
      4 C         142.4028  139.9369  166.9548 C.ar    1  UNL1        0.0689
      5 C         141.0400  140.0873  167.5630 C.ar    1  UNL1        0.1375
      6 N         139.8331  139.5735  166.8354 N.ar    1  UNL1       -0.1988
      7 N         140.8839  140.7516  168.8988 N.pl3   1  UNL1       -0.2879
      8 C         140.4614  142.1887  168.9770 C.3     1  UNL1        0.1242
      9 C         140.3054  142.8529  170.3129 C.3     1  UNL1        0.1636
     10 O         140.5719  142.0801  171.5705 O.3     1  UNL1       -0.3501
     11 C         140.9945  140.6430  171.4923 C.3     1  UNL1        0.1636
     12 C         141.1505  139.9788  170.1564 C.3     1  UNL1        0.1242
     13 N         138.7822  138.3954  164.7720 N.pl3   1  UNL1       -0.2994
     14 H         138.2294  137.6870  165.1744 H       1  UNL1        0.1499
     15 C         138.2701  138.0503  162.2483 C.3     1  UNL1        0.0278
     16 C         138.4176  138.9607  163.4313 C.3     1  UNL1        0.1120
     17 C         138.2004  140.4365  163.2736 C.ar    1  UNL1        0.0769
     18 C         138.2341  141.0579  161.9088 C.ar    1  UNL1        0.0187
     19 C         138.0169  142.5337  161.7511 C.ar    1  UNL1        0.0325
     20 C         137.7660  143.3881  162.9582 C.ar    1  UNL1        0.1592
     21 F         137.5488  144.8639  162.8005 F       1  UNL1       -0.2025
     22 C         137.7322  142.7667  164.3231 C.ar    1  UNL1        0.1280
     23 N         137.9494  141.2909  164.4808 N.ar    1  UNL1       -0.2442
     24 N         143.9218  139.1223  165.0108 N.pl3   1  UNL1       -0.2780
     25 H         144.4940  138.3631  165.2666 H       1  UNL1        0.1555
     26 C         144.4129  140.1286  164.0127 C.ar    1  UNL1        0.1653
     27 N         145.5704  141.0640  164.2003 N.ar    1  UNL1       -0.2217
     28 C         145.7056  141.8898  162.9554 C.ar    1  UNL1        0.1177
     29 C         144.6315  141.4648  161.9984 C.ar    1  UNL1        0.1194
     30 S         143.8326  140.3764  162.6519 S.2     1  UNL1       -0.0409
     31 C         144.3975  142.0292  160.6285 C.1     1  UNL1        0.1086
     32 N         144.1635  142.5936  159.2585 N.1     1  UNL1       -0.1903
@<TRIPOS>BOND
     1    16    15    1
     2    16    13    1
     3    13     1    1
     4     1     2   ar
     5     2     3   ar
     6     3    24    1
     7    24    26    1
     8    26    27   ar
     9    27    28   ar
    10    28    29   ar
    11    29    31    1
    12    31    32    3
    13    29    30   ar
    14     3     4   ar
    15     4     5   ar
    16     5     7    1
    17     7     8    1
    18     8     9    1
    19     9    10    1
    20    10    11    1
    21    11    12    1
    22     5     6   ar
    23    16    17    1
    24    17    18   ar
    25    18    19   ar
    26    19    20   ar
    27    20    21    1
    28    20    22   ar
    29    22    23   ar
    30     6     1   ar
    31    23    17   ar
    32    30    26   ar
    33    12     7    1
    34    13    14    1
    35    24    25    1
@<TRIPOS>MOLECULE
*****
 32 35 0 0 0
SMALL
GASTEIGER

@<TRIPOS>ATOM
      1 C         139.3017  143.4488  165.0339 C.ar    1  UNL1        0.2194
      2 N         138.7833  142.1482  164.4956 N.ar    1  UNL1       -0.1986
      3 C         138.9438  140.8887  165.2943 C.ar    1  UNL1        0.1393
      4 C         139.6228  140.9298  166.6312 C.ar    1  UNL1        0.0689
      5 C         140.1412  142.2303  167.1695 C.ar    1  UNL1        0.1375
      6 N         139.9807  143.4898  166.3708 N.ar    1  UNL1       -0.1988
      7 N         140.8201  142.2714  168.5064 N.pl3   1  UNL1       -0.2879
      8 C         142.3016  142.4914  168.5888 C.3     1  UNL1        0.1242
      9 C         142.9805  142.5324  169.9257 C.3     1  UNL1        0.1636
     10 O         142.1780  142.3534  171.1802 O.3     1  UNL1       -0.3501
     11 C         140.6966  142.1334  171.0978 C.3     1  UNL1        0.1636
     12 C         140.0176  142.0924  169.7609 C.3     1  UNL1        0.1242
     13 N         139.1412  144.7083  164.2353 N.pl3   1  UNL1       -0.2994
     14 H         138.3994  145.3249  164.4322 H       1  UNL1        0.1499
     15 C         139.7174  145.9743  162.0409 C.3     1  UNL1        0.0278
     16 C         140.1109  145.0285  163.1366 C.3     1  UNL1        0.1120
     17 C         141.4742  144.4028  163.1336 C.ar    1  UNL1        0.0769
     18 C         142.6067  145.0688  163.8572 C.ar    1  UNL1        0.0187
     19 C         143.9700  144.4431  163.8542 C.ar    1  UNL1        0.0325
     20 C         144.2007  143.1514  163.1275 C.ar    1  UNL1        0.1592
     21 F         145.5640  142.5257  163.1245 F       1  UNL1       -0.2025
     22 C         143.0682  142.4853  162.4038 C.ar    1  UNL1        0.1280
     23 N         141.7049  143.1110  162.4068 N.ar    1  UNL1       -0.2442
     24 N         138.4254  139.5881  164.7560 N.pl3   1  UNL1       -0.2780
     25 H         137.7092  139.1088  165.2321 H       1  UNL1        0.1555
     26 C         138.9981  139.0178  163.4924 C.ar    1  UNL1        0.1653
     27 N         138.2137  138.5247  162.3128 N.ar    1  UNL1       -0.2217
     28 C         139.1866  138.0426  161.2778 C.ar    1  UNL1        0.1177
     29 C         140.5724  138.2377  161.8179 C.ar    1  UNL1        0.1194
     30 S         140.4559  138.8405  163.1865 S.2     1  UNL1       -0.0409
     31 C         141.8503  137.8911  161.1130 C.1     1  UNL1        0.1086
     32 N         143.1282  137.5444  160.4082 N.1     1  UNL1       -0.1903
@<TRIPOS>BOND
     1    16    15    1
     2    16    13    1
     3    13     1    1
     4     1     2   ar
     5     2     3   ar
     6     3    24    1
     7    24    26    1
     8    26    27   ar
     9    27    28   ar
    10    28    29   ar
    11    29    31    1
    12    31    32    3
    13    29    30   ar
    14     3     4   ar
    15     4     5   ar
    16     5     7    1
    17     7     8    1
    18     8     9    1
    19     9    10    1
    20    10    11    1
    21    11    12    1
    22     5     6   ar
    23    16    17    1
    24    17    18   ar
    25    18    19   ar
    26    19    20   ar
    27    20    21    1
    28    20    22   ar
    29    22    23   ar
    30     6     1   ar
    31    23    17   ar
    32    30    26   ar
    33    12     7    1
    34    13    14    1
    35    24    25    1
@<TRIPOS>MOLECULE
*****
 32 35 0 0 0
SMALL
GASTEIGER

@<TRIPOS>ATOM
      1 C         142.3119  140.3296  165.3080 C.ar    1  UNL1        0.2194
      2 N         141.0565  139.9156  164.5991 N.ar    1  UNL1       -0.1986
      3 C         139.7419  139.9491  165.3207 C.ar    1  UNL1        0.1393
      4 C         139.6828  140.3965  166.7512 C.ar    1  UNL1        0.0689
      5 C         140.9382  140.8105  167.4600 C.ar    1  UNL1        0.1375
      6 N         142.2527  140.7771  166.7384 N.ar    1  UNL1       -0.1988
      7 N         140.8790  141.2580  168.8905 N.pl3   1  UNL1       -0.2879
      8 C         140.0641  142.4596  169.2674 C.3     1  UNL1        0.1242
      9 C         140.0049  142.9071  170.6978 C.3     1  UNL1        0.1636
     10 O         140.7607  142.1530  171.7515 O.3     1  UNL1       -0.3501
     11 C         141.5755  140.9514  171.3746 C.3     1  UNL1        0.1636
     12 C         141.6347  140.5039  169.9441 C.3     1  UNL1        0.1242
     13 N         143.6265  140.2961  164.5864 N.pl3   1  UNL1       -0.2994
     14 H         144.1033  139.4425  164.4714 H       1  UNL1        0.1499
     15 C         145.7023  141.7035  163.9077 C.3     1  UNL1        0.0278
     16 C         144.2147  141.5632  164.0400 C.3     1  UNL1        0.1120
     17 C         143.3153  142.6900  163.6260 C.ar    1  UNL1        0.0769
     18 C         143.4028  144.0147  164.3241 C.ar    1  UNL1        0.0187
     19 C         142.5034  145.1415  163.9100 C.ar    1  UNL1        0.0325
     20 C         141.5166  144.9436  162.7979 C.ar    1  UNL1        0.1592
     21 F         140.6172  146.0704  162.3838 F       1  UNL1       -0.2025
     22 C         141.4291  143.6188  162.0997 C.ar    1  UNL1        0.1280
     23 N         142.3284  142.4920  162.5138 N.ar    1  UNL1       -0.2442
     24 N         138.4864  139.5350  164.6118 N.pl3   1  UNL1       -0.2780
     25 H         137.6431  139.4511  165.1128 H       1  UNL1        0.1555
     26 C         138.5160  139.2489  163.1397 C.ar    1  UNL1        0.1653
     27 N         139.0444  138.0022  162.4942 N.ar    1  UNL1       -0.2217
     28 C         138.8772  138.1420  161.0101 C.ar    1  UNL1        0.1177
     29 C         138.2455  139.4751  160.7383 C.ar    1  UNL1        0.1194
     30 S         138.0222  140.1591  162.0545 S.2     1  UNL1       -0.0409
     31 C         137.8980  140.0271  159.3876 C.1     1  UNL1        0.1086
     32 N         137.5505  140.5792  158.0369 N.1     1  UNL1       -0.1903
@<TRIPOS>BOND
     1    16    15    1
     2    16    13    1
     3    13     1    1
     4     1     2   ar
     5     2     3   ar
     6     3    24    1
     7    24    26    1
     8    26    27   ar
     9    27    28   ar
    10    28    29   ar
    11    29    31    1
    12    31    32    3
    13    29    30   ar
    14     3     4   ar
    15     4     5   ar
    16     5     7    1
    17     7     8    1
    18     8     9    1
    19     9    10    1
    20    10    11    1
    21    11    12    1
    22     5     6   ar
    23    16    17    1
    24    17    18   ar
    25    18    19   ar
    26    19    20   ar
    27    20    21    1
    28    20    22   ar
    29    22    23   ar
    30     6     1   ar
    31    23    17   ar
    32    30    26   ar
    33    12     7    1
    34    13    14    1
    35    24    25    1
@<TRIPOS>MOLECULE
*****
 32 35 0 0 0
SMALL
GASTEIGER

@<TRIPOS>ATOM
      1 C         138.9783  140.8284  165.2990 C.ar    1  UNL1        0.2194
      2 N         138.9409  142.1616  164.6127 N.ar    1  UNL1       -0.1986
      3 C         139.4759  143.3783  165.3079 C.ar    1  UNL1        0.1393
      4 C         140.0481  143.2618  166.6896 C.ar    1  UNL1        0.0689
      5 C         140.0854  141.9286  167.3759 C.ar    1  UNL1        0.1375
      6 N         139.5505  140.7119  166.6807 N.ar    1  UNL1       -0.1988
      7 N         140.6577  141.8122  168.7576 N.pl3   1  UNL1       -0.2879
      8 C         141.7634  142.7283  169.1911 C.3     1  UNL1        0.1242
      9 C         142.3357  142.6118  170.5728 C.3     1  UNL1        0.1636
     10 O         141.8022  141.5792  171.5209 O.3     1  UNL1       -0.3501
     11 C         140.6965  140.6630  171.0874 C.3     1  UNL1        0.1636
     12 C         140.1243  140.7795  169.7057 C.3     1  UNL1        0.1242
     13 N         138.4433  139.6116  164.6037 N.pl3   1  UNL1       -0.2994
     14 H         137.4830  139.4002  164.6506 H       1  UNL1        0.1499
     15 C         138.8156  137.6748  162.9125 C.3     1  UNL1        0.0278
     16 C         139.3717  138.7170  163.8371 C.3     1  UNL1        0.1120
     17 C         140.8560  138.8645  163.9950 C.ar    1  UNL1        0.0769
     18 C         141.5624  138.1742  165.1239 C.ar    1  UNL1        0.0187
     19 C         143.0468  138.3217  165.2817 C.ar    1  UNL1        0.0325
     20 C         143.8247  139.1594  164.3107 C.ar    1  UNL1        0.1592
     21 F         145.3091  139.3069  164.4686 F       1  UNL1       -0.2025
     22 C         143.1183  139.8497  163.1817 C.ar    1  UNL1        0.1280
     23 N         141.6340  139.7023  163.0239 N.ar    1  UNL1       -0.2442
     24 N         139.4385  144.7116  164.6216 N.pl3   1  UNL1       -0.2780
     25 H         139.1142  145.5054  165.1053 H       1  UNL1        0.1555
     26 C         139.8954  144.8354  163.1982 C.ar    1  UNL1        0.1653
     27 N         139.2745  145.7050  162.1454 N.ar    1  UNL1       -0.2217
     28 C         140.0486  145.5184  160.8742 C.ar    1  UNL1        0.1177
     29 C         141.1480  144.5336  161.1414 C.ar    1  UNL1        0.1194
     30 S         141.0533  144.1115  162.5777 S.2     1  UNL1       -0.0409
     31 C         142.1639  144.0548  160.1469 C.1     1  UNL1        0.1086
     32 N         143.1797  143.5761  159.1525 N.1     1  UNL1       -0.1903
@<TRIPOS>BOND
     1    16    15    1
     2    16    13    1
     3    13     1    1
     4     1     2   ar
     5     2     3   ar
     6     3    24    1
     7    24    26    1
     8    26    27   ar
     9    27    28   ar
    10    28    29   ar
    11    29    31    1
    12    31    32    3
    13    29    30   ar
    14     3     4   ar
    15     4     5   ar
    16     5     7    1
    17     7     8    1
    18     8     9    1
    19     9    10    1
    20    10    11    1
    21    11    12    1
    22     5     6   ar
    23    16    17    1
    24    17    18   ar
    25    18    19   ar
    26    19    20   ar
    27    20    21    1
    28    20    22   ar
    29    22    23   ar
    30     6     1   ar
    31    23    17   ar
    32    30    26   ar
    33    12     7    1
    34    13    14    1
    35    24    25    1
@<TRIPOS>MOLECULE
*****
 32 35 0 0 0
SMALL
GASTEIGER

@<TRIPOS>ATOM
      1 C         140.7014  138.7437  164.6166 C.ar    1  UNL1        0.2194
      2 N         141.8100  138.6990  163.6072 N.ar    1  UNL1       -0.1986
      3 C         143.1728  139.2120  163.9669 C.ar    1  UNL1        0.1393
      4 C         143.4270  139.7698  165.3360 C.ar    1  UNL1        0.0689
      5 C         142.3184  139.8145  166.3453 C.ar    1  UNL1        0.1375
      6 N         140.9555  139.3014  165.9856 N.ar    1  UNL1       -0.1988
      7 N         142.5726  140.3722  167.7144 N.pl3   1  UNL1       -0.2879
      8 C         142.4870  139.4786  168.9161 C.3     1  UNL1        0.1242
      9 C         142.7412  140.0364  170.2851 C.3     1  UNL1        0.1636
     10 O         143.0809  141.4878  170.4525 O.3     1  UNL1       -0.3501
     11 C         143.1665  142.3814  169.2508 C.3     1  UNL1        0.1636
     12 C         142.9123  141.8236  167.8817 C.3     1  UNL1        0.1242
     13 N         139.3384  138.2306  164.2569 N.pl3   1  UNL1       -0.2994
     14 H         138.9314  137.5044  164.7824 H       1  UNL1        0.1499
     15 C         138.1428  137.9461  161.9679 C.3     1  UNL1        0.0278
     16 C         138.5958  138.8241  163.0967 C.3     1  UNL1        0.1120
     17 C         138.3060  140.2955  163.0652 C.ar    1  UNL1        0.0769
     18 C         137.9891  141.0249  164.3370 C.ar    1  UNL1        0.0187
     19 C         137.6993  142.4963  164.3055 C.ar    1  UNL1        0.0325
     20 C         137.7264  143.2383  163.0022 C.ar    1  UNL1        0.1592
     21 F         137.4366  144.7097  162.9707 F       1  UNL1       -0.2025
     22 C         138.0432  142.5089  161.7303 C.ar    1  UNL1        0.1280
     23 N         138.3330  141.0375  161.7618 N.ar    1  UNL1       -0.2442
     24 N         144.2816  139.1673  162.9575 N.pl3   1  UNL1       -0.2780
     25 H         145.1405  138.7450  163.1882 H       1  UNL1        0.1555
     26 C         144.0816  139.7660  161.5968 C.ar    1  UNL1        0.1653
     27 N         144.1016  139.0220  160.2946 N.ar    1  UNL1       -0.2217
     28 C         143.8589  140.0100  159.1923 C.ar    1  UNL1        0.1177
     29 C         143.6889  141.3648  159.8134 C.ar    1  UNL1        0.1194
     30 S         143.8266  141.2140  161.2995 S.2     1  UNL1       -0.0409
     31 C         143.4273  142.6455  159.0777 C.1     1  UNL1        0.1086
     32 N         143.1656  143.9262  158.3420 N.1     1  UNL1       -0.1903
@<TRIPOS>BOND
     1    16    15    1
     2    16    13    1
     3    13     1    1
     4     1     2   ar
     5     2     3   ar
     6     3    24    1
     7    24    26    1
     8    26    27   ar
     9    27    28   ar
    10    28    29   ar
    11    29    31    1
    12    31    32    3
    13    29    30   ar
    14     3     4   ar
    15     4     5   ar
    16     5     7    1
    17     7     8    1
    18     8     9    1
    19     9    10    1
    20    10    11    1
    21    11    12    1
    22     5     6   ar
    23    16    17    1
    24    17    18   ar
    25    18    19   ar
    26    19    20   ar
    27    20    21    1
    28    20    22   ar
    29    22    23   ar
    30     6     1   ar
    31    23    17   ar
    32    30    26   ar
    33    12     7    1
    34    13    14    1
    35    24    25    1
@<TRIPOS>MOLECULE
*****
 32 35 0 0 0
SMALL
GASTEIGER

@<TRIPOS>ATOM
      1 C         141.5513  138.9732  165.0557 C.ar    1  UNL1        0.2194
      2 N         140.2879  139.5290  164.4684 N.ar    1  UNL1       -0.1986
      3 C         139.3553  140.3355  165.3226 C.ar    1  UNL1        0.1393
      4 C         139.6860  140.5863  166.7640 C.ar    1  UNL1        0.0689
      5 C         140.9494  140.0305  167.3513 C.ar    1  UNL1        0.1375
      6 N         141.8820  139.2240  166.4971 N.ar    1  UNL1       -0.1988
      7 N         141.2802  140.2813  168.7927 N.pl3   1  UNL1       -0.2879
      8 C         142.6313  139.9098  169.3278 C.3     1  UNL1        0.1242
      9 C         142.9620  140.1606  170.7692 C.3     1  UNL1        0.1636
     10 O         141.9417  140.7828  171.6756 O.3     1  UNL1       -0.3501
     11 C         140.5905  141.1543  171.1405 C.3     1  UNL1        0.1636
     12 C         140.2598  140.9036  169.6991 C.3     1  UNL1        0.1242
     13 N         142.4840  138.1666  164.2015 N.pl3   1  UNL1       -0.2994
     14 H         142.5844  137.2001  164.3594 H       1  UNL1        0.1499
     15 C         143.7553  138.0284  161.9399 C.3     1  UNL1        0.0278
     16 C         143.2637  138.8327  163.1068 C.3     1  UNL1        0.1120
     17 C         143.5518  140.3030  163.1789 C.ar    1  UNL1        0.0769
     18 C         144.7642  140.7946  163.9125 C.ar    1  UNL1        0.0187
     19 C         145.0523  142.2649  163.9846 C.ar    1  UNL1        0.0325
     20 C         144.1279  143.2436  163.3231 C.ar    1  UNL1        0.1592
     21 F         144.4160  144.7139  163.3952 F       1  UNL1       -0.2025
     22 C         142.9153  142.7520  162.5895 C.ar    1  UNL1        0.1280
     23 N         142.6273  141.2817  162.5174 N.ar    1  UNL1       -0.2442
     24 N         138.0918  140.8913  164.7353 N.pl3   1  UNL1       -0.2780
     25 H         137.2176  140.5759  165.0601 H       1  UNL1        0.1555
     26 C         138.1603  141.9278  163.6532 C.ar    1  UNL1        0.1653
     27 N         137.5401  141.8231  162.2915 N.ar    1  UNL1       -0.2217
     28 C         137.8575  143.0816  161.5394 C.ar    1  UNL1        0.1177
     29 C         138.6741  143.9640  162.4364 C.ar    1  UNL1        0.1194
     30 S         138.8612  143.2510  163.7427 S.2     1  UNL1       -0.0409
     31 C         139.2095  145.3213  162.0882 C.1     1  UNL1        0.1086
     32 N         139.7449  146.6785  161.7399 N.1     1  UNL1       -0.1903
@<TRIPOS>BOND
     1    16    15    1
     2    16    13    1
     3    13     1    1
     4     1     2   ar
     5     2     3   ar
     6     3    24    1
     7    24    26    1
     8    26    27   ar
     9    27    28   ar
    10    28    29   ar
    11    29    31    1
    12    31    32    3
    13    29    30   ar
    14     3     4   ar
    15     4     5   ar
    16     5     7    1
    17     7     8    1
    18     8     9    1
    19     9    10    1
    20    10    11    1
    21    11    12    1
    22     5     6   ar
    23    16    17    1
    24    17    18   ar
    25    18    19   ar
    26    19    20   ar
    27    20    21    1
    28    20    22   ar
    29    22    23   ar
    30     6     1   ar
    31    23    17   ar
    32    30    26   ar
    33    12     7    1
    34    13    14    1
    35    24    25    1
@<TRIPOS>MOLECULE
*****
 32 35 0 0 0
SMALL
GASTEIGER

@<TRIPOS>ATOM
      1 C         143.2494  141.6701  165.3608 C.ar    1  UNL1        0.2194
      2 N         142.9472  140.4148  164.5974 N.ar    1  UNL1       -0.1986
      3 C         142.2022  139.2946  165.2608 C.ar    1  UNL1        0.1393
      4 C         141.7593  139.4298  166.6876 C.ar    1  UNL1        0.0689
      5 C         142.0615  140.6851  167.4510 C.ar    1  UNL1        0.1375
      6 N         142.8065  141.8053  166.7876 N.ar    1  UNL1       -0.1988
      7 N         141.6187  140.8203  168.8777 N.pl3   1  UNL1       -0.2879
      8 C         142.2755  141.8272  169.7747 C.3     1  UNL1        0.1242
      9 C         141.8327  141.9624  171.2014 C.3     1  UNL1        0.1636
     10 O         140.7330  141.0906  171.7312 O.3     1  UNL1       -0.3501
     11 C         140.0762  140.0837  170.8342 C.3     1  UNL1        0.1636
     12 C         140.5190  139.9485  169.4075 C.3     1  UNL1        0.1242
     13 N         143.9944  142.7904  164.6974 N.pl3   1  UNL1       -0.2994
     14 H         144.8643  143.0823  165.0543 H       1  UNL1        0.1499
     15 C         144.3197  143.9822  162.4119 C.3     1  UNL1        0.0278
     16 C         143.4141  143.4659  163.4904 C.3     1  UNL1        0.1120
     17 C         141.9281  143.6250  163.3619 C.ar    1  UNL1        0.0769
     18 C         141.2189  144.6967  164.1355 C.ar    1  UNL1        0.0187
     19 C         139.7329  144.8559  164.0070 C.ar    1  UNL1        0.0325
     20 C         138.9561  143.9434  163.1049 C.ar    1  UNL1        0.1592
     21 F         137.4701  144.1025  162.9764 F       1  UNL1       -0.2025
     22 C         139.6653  142.8716  162.3312 C.ar    1  UNL1        0.1280
     23 N         141.1513  142.7125  162.4597 N.ar    1  UNL1       -0.2442
     24 N         141.9000  138.0392  164.4974 N.pl3   1  UNL1       -0.2780
     25 H         142.3888  137.2093  164.7014 H       1  UNL1        0.1555
     26 C         140.8530  138.0483  163.4233 C.ar    1  UNL1        0.1653
     27 N         139.3993  137.7271  163.6063 N.ar    1  UNL1       -0.2217
     28 C         138.7237  137.8604  162.2736 C.ar    1  UNL1        0.1177
     29 C         139.7600  138.2641  161.2670 C.ar    1  UNL1        0.1194
     30 S         141.0759  138.3802  161.9776 S.2     1  UNL1       -0.0409
     31 C         139.5221  138.5087  159.8064 C.1     1  UNL1        0.1086
     32 N         139.2842  138.7533  158.3457 N.1     1  UNL1       -0.1903
@<TRIPOS>BOND
     1    16    15    1
     2    16    13    1
     3    13     1    1
     4     1     2   ar
     5     2     3   ar
     6     3    24    1
     7    24    26    1
     8    26    27   ar
     9    27    28   ar
    10    28    29   ar
    11    29    31    1
    12    31    32    3
    13    29    30   ar
    14     3     4   ar
    15     4     5   ar
    16     5     7    1
    17     7     8    1
    18     8     9    1
    19     9    10    1
    20    10    11    1
    21    11    12    1
    22     5     6   ar
    23    16    17    1
    24    17    18   ar
    25    18    19   ar
    26    19    20   ar
    27    20    21    1
    28    20    22   ar
    29    22    23   ar
    30     6     1   ar
    31    23    17   ar
    32    30    26   ar
    33    12     7    1
    34    13    14    1
    35    24    25    1
@<TRIPOS>MOLECULE
*****
 32 35 0 0 0
SMALL
GASTEIGER

@<TRIPOS>ATOM
      1 C         141.1864  139.5452  165.4391 C.ar    1  UNL1        0.2194
      2 N         142.3636  140.1764  164.7567 N.ar    1  UNL1       -0.1986
      3 C         143.1741  141.2178  165.4698 C.ar    1  UNL1        0.1393
      4 C         142.8073  141.6281  166.8652 C.ar    1  UNL1        0.0689
      5 C         141.6300  140.9969  167.5475 C.ar    1  UNL1        0.1375
      6 N         140.8196  139.9554  166.8345 N.ar    1  UNL1       -0.1988
      7 N         141.2632  141.4071  168.9429 N.pl3   1  UNL1       -0.2879
      8 C         141.8559  140.6859  170.1170 C.3     1  UNL1        0.1242
      9 C         141.4891  141.0962  171.5124 C.3     1  UNL1        0.1636
     10 O         140.5296  142.2276  171.7338 O.3     1  UNL1       -0.3501
     11 C         139.9369  142.9489  170.5597 C.3     1  UNL1        0.1636
     12 C         140.3037  142.5386  169.1643 C.3     1  UNL1        0.1242
     13 N         140.3758  138.5037  164.7260 N.pl3   1  UNL1       -0.2994
     14 H         140.4556  137.5567  164.9830 H       1  UNL1        0.1499
     15 C         138.9181  137.8708  162.6706 C.3     1  UNL1        0.0278
     16 C         139.4438  138.9051  163.6214 C.3     1  UNL1        0.1120
     17 C         139.0375  140.3408  163.4675 C.ar    1  UNL1        0.0769
     18 C         138.0574  140.9497  164.4259 C.ar    1  UNL1        0.0187
     19 C         137.6511  142.3854  164.2720 C.ar    1  UNL1        0.0325
     20 C         138.2248  143.2121  163.1596 C.ar    1  UNL1        0.1592
     21 F         137.8185  144.6478  163.0057 F       1  UNL1       -0.2025
     22 C         139.2049  142.6032  162.2011 C.ar    1  UNL1        0.1280
     23 N         139.6113  141.1675  162.3550 N.ar    1  UNL1       -0.2442
     24 N         144.3514  141.8491  164.7875 N.pl3   1  UNL1       -0.2780
     25 H         145.1676  142.0503  165.2998 H       1  UNL1        0.1555
     26 C         144.2851  142.1737  163.3245 C.ar    1  UNL1        0.1653
     27 N         145.2768  141.7507  162.2817 N.ar    1  UNL1       -0.2217
     28 C         144.8200  142.2938  160.9602 C.ar    1  UNL1        0.1177
     29 C         143.5459  143.0524  161.1863 C.ar    1  UNL1        0.1194
     30 S         143.2153  142.9782  162.6475 S.2     1  UNL1       -0.0409
     31 C         142.7433  143.7609  160.1356 C.1     1  UNL1        0.1086
     32 N         141.9407  144.4694  159.0850 N.1     1  UNL1       -0.1903
@<TRIPOS>BOND
     1    16    15    1
     2    16    13    1
     3    13     1    1
     4     1     2   ar
     5     2     3   ar
     6     3    24    1
     7    24    26    1
     8    26    27   ar
     9    27    28   ar
    10    28    29   ar
    11    29    31    1
    12    31    32    3
    13    29    30   ar
    14     3     4   ar
    15     4     5   ar
    16     5     7    1
    17     7     8    1
    18     8     9    1
    19     9    10    1
    20    10    11    1
    21    11    12    1
    22     5     6   ar
    23    16    17    1
    24    17    18   ar
    25    18    19   ar
    26    19    20   ar
    27    20    21    1
    28    20    22   ar
    29    22    23   ar
    30     6     1   ar
    31    23    17   ar
    32    30    26   ar
    33    12     7    1
    34    13    14    1
    35    24    25    1
