@<TRIPOS>MOLECULE
*****
 32 36 0 0 0
SMALL
GASTEIGER

@<TRIPOS>ATOM
      1 C         139.2693  140.3503  163.5277 C.ar    1  UNL1       -0.0003
      2 C         138.2023  140.2848  164.5800 C.ar    1  UNL1        0.0001
      3 C         138.5774  140.0664  166.0158 C.ar    1  UNL1        0.0042
      4 C         140.0195  139.9137  166.3993 C.ar    1  UNL1        0.0497
      5 C         141.0864  139.9792  165.3471 C.ar    1  UNL1       -0.0161
      6 C         140.7113  140.1975  163.9113 C.ar    1  UNL1       -0.0041
      7 C         142.5285  139.8264  165.7306 C.3     1  UNL1        0.0480
      8 C         142.9036  139.6081  167.1664 C.3     1  UNL1        0.0984
      9 N         141.8366  139.5425  168.2188 N.am    1  UNL1       -0.2743
     10 C         140.3946  139.6953  167.8352 C.2     1  UNL1        0.2488
     11 O         139.3276  139.6298  168.8875 O.2     1  UNL1       -0.2699
     12 C         138.1440  141.0052  159.2201 C.ar    1  UNL1        0.0534
     13 C         137.5801  139.8370  159.9734 C.ar    1  UNL1        0.0045
     14 C         137.9552  139.6187  161.4092 C.ar    1  UNL1        0.0001
     15 C         138.8942  140.5686  162.0918 C.ar    1  UNL1       -0.0000
     16 C         139.4581  141.7368  161.3387 C.ar    1  UNL1        0.0001
     17 C         139.0830  141.9552  159.9028 C.ar    1  UNL1        0.0045
     18 O         137.8856  140.0983  156.7992 O.2     1  UNL1       -0.2701
     19 C         137.7689  141.2235  157.7843 C.2     1  UNL1        0.2458
     20 N         137.2771  142.5670  157.3336 N.am    1  UNL1       -0.3025
     21 H         137.2006  143.3055  157.9801 H       1  UNL1        0.1497
     22 C         136.9020  142.7853  155.8977 C.3     1  UNL1        0.0719
     23 C         135.8731  142.2090  154.9707 C.3     1  UNL1        0.0196
     24 C         136.3716  143.0942  153.8671 C.3     1  UNL1        0.0034
     25 C         137.4005  143.6705  154.7940 C.3     1  UNL1        0.0196
     26 C         142.2118  139.3242  169.6546 C.3     1  UNL1        0.1110
     27 C         142.4540  140.5002  170.5536 C.3     1  UNL1        0.0939
     28 N         141.5784  141.7140  170.4532 N.3     1  UNL1       -0.2712
     29 C         140.2706  141.9185  171.1589 C.3     1  UNL1        0.0722
     30 C         139.7407  143.2673  170.7713 C.3     1  UNL1        0.0188
     31 C         140.7211  143.8963  169.8261 C.3     1  UNL1        0.0188
     32 C         141.8567  142.9363  169.6295 C.3     1  UNL1        0.0722
@<TRIPOS>BOND
     1    18    19    2
     2    19    20   am
     3    20    22    1
     4    22    23    1
     5    23    24    1
     6    24    25    1
     7    19    12    1
     8    12    13   ar
     9    13    14   ar
    10    14    15   ar
    11    15     1    1
    12     1     2   ar
    13     2     3   ar
    14     3     4   ar
    15     4     5   ar
    16     5     6   ar
    17     5     7    1
    18     7     8    1
    19     8     9    1
    20     9    26    1
    21    26    27    1
    22    27    28    1
    23    28    29    1
    24    29    30    1
    25    30    31    1
    26    31    32    1
    27     9    10   am
    28    10    11    2
    29    15    16   ar
    30    16    17   ar
    31    25    22    1
    32    17    12   ar
    33     6     1   ar
    34    32    28    1
    35    10     4    1
    36    20    21    1
@<TRIPOS>MOLECULE
*****
 32 36 0 0 0
SMALL
GASTEIGER

@<TRIPOS>ATOM
      1 C         140.9242  141.4717  164.9009 C.ar    1  UNL1       -0.0003
      2 C         140.7335  142.8934  164.4622 C.ar    1  UNL1        0.0001
      3 C         141.3652  143.3770  163.1906 C.ar    1  UNL1        0.0042
      4 C         142.1877  142.4389  162.3577 C.ar    1  UNL1        0.0497
      5 C         142.3784  141.0173  162.7965 C.ar    1  UNL1       -0.0161
      6 C         141.7466  140.5337  164.0681 C.ar    1  UNL1       -0.0041
      7 C         143.2008  140.0792  161.9636 C.3     1  UNL1        0.0480
      8 C         143.8325  140.5628  160.6920 C.3     1  UNL1        0.0984
      9 N         143.6418  141.9845  160.2532 N.am    1  UNL1       -0.2743
     10 C         142.8194  142.9226  161.0861 C.2     1  UNL1        0.2488
     11 O         142.6287  144.3442  160.6473 O.2     1  UNL1       -0.2699
     12 C         139.0290  140.0208  168.7159 C.ar    1  UNL1        0.0534
     13 C         138.6880  139.3631  167.4115 C.ar    1  UNL1        0.0045
     14 C         139.3198  139.8467  166.1399 C.ar    1  UNL1        0.0001
     15 C         140.2925  140.9881  166.1726 C.ar    1  UNL1       -0.0000
     16 C         140.6335  141.6458  167.4769 C.ar    1  UNL1        0.0001
     17 C         140.0018  141.1621  168.7485 C.ar    1  UNL1        0.0045
     18 O         139.1463  139.6390  171.2830 O.2     1  UNL1       -0.2701
     19 C         138.3973  139.5371  169.9874 C.2     1  UNL1        0.2458
     20 N         137.0166  138.9516  169.9634 N.am    1  UNL1       -0.3025
     21 H         136.5250  138.8847  169.1130 H       1  UNL1        0.1497
     22 C         136.3848  138.4679  171.2350 C.3     1  UNL1        0.0719
     23 C         135.2301  138.9139  172.0823 C.3     1  UNL1        0.0196
     24 C         135.4914  137.7838  173.0333 C.3     1  UNL1        0.0034
     25 C         136.6460  137.3377  172.1860 C.3     1  UNL1        0.0196
     26 C         144.2735  142.4681  158.9816 C.3     1  UNL1        0.1110
     27 C         144.5630  141.5004  157.8727 C.3     1  UNL1        0.0939
     28 N         145.7201  141.7423  156.9492 N.3     1  UNL1       -0.2712
     29 C         145.9056  141.1343  155.5905 C.3     1  UNL1        0.0722
     30 C         147.1950  141.6508  155.0238 C.3     1  UNL1        0.0188
     31 C         147.8061  142.5780  156.0323 C.3     1  UNL1        0.0188
     32 C         146.8946  142.6344  157.2222 C.3     1  UNL1        0.0722
@<TRIPOS>BOND
     1    18    19    2
     2    19    20   am
     3    20    22    1
     4    22    23    1
     5    23    24    1
     6    24    25    1
     7    19    12    1
     8    12    13   ar
     9    13    14   ar
    10    14    15   ar
    11    15     1    1
    12     1     2   ar
    13     2     3   ar
    14     3     4   ar
    15     4     5   ar
    16     5     6   ar
    17     5     7    1
    18     7     8    1
    19     8     9    1
    20     9    26    1
    21    26    27    1
    22    27    28    1
    23    28    29    1
    24    29    30    1
    25    30    31    1
    26    31    32    1
    27     9    10   am
    28    10    11    2
    29    15    16   ar
    30    16    17   ar
    31    25    22    1
    32    17    12   ar
    33     6     1   ar
    34    32    28    1
    35    10     4    1
    36    20    21    1
@<TRIPOS>MOLECULE
*****
 32 36 0 0 0
SMALL
GASTEIGER

@<TRIPOS>ATOM
      1 C         140.2944  138.5928  162.4612 C.ar    1  UNL1       -0.0003
      2 C         139.1858  137.7423  163.0067 C.ar    1  UNL1        0.0001
      3 C         138.7460  137.9067  164.4313 C.ar    1  UNL1        0.0042
      4 C         139.4149  138.9215  165.3104 C.ar    1  UNL1        0.0497
      5 C         140.5235  139.7720  164.7649 C.ar    1  UNL1       -0.0161
      6 C         140.9632  139.6076  163.3403 C.ar    1  UNL1       -0.0041
      7 C         141.1923  140.7868  165.6439 C.3     1  UNL1        0.0480
      8 C         140.7526  140.9512  167.0685 C.3     1  UNL1        0.0984
      9 N         139.6439  140.1007  167.6141 N.am    1  UNL1       -0.2743
     10 C         138.9750  139.0859  166.7351 C.2     1  UNL1        0.2488
     11 O         137.8664  138.2354  167.2806 O.2     1  UNL1       -0.2699
     12 C         141.6139  138.0997  158.1873 C.ar    1  UNL1        0.0534
     13 C         142.6140  137.9836  159.2992 C.ar    1  UNL1        0.0045
     14 C         142.1742  138.1479  160.7238 C.ar    1  UNL1        0.0001
     15 C         140.7342  138.4284  161.0365 C.ar    1  UNL1       -0.0000
     16 C         139.7341  138.5446  159.9247 C.ar    1  UNL1        0.0001
     17 C         140.1739  138.3802  158.5000 C.ar    1  UNL1        0.0045
     18 O         143.5127  137.8096  156.4380 O.2     1  UNL1       -0.2701
     19 C         142.0537  137.9354  156.7627 C.2     1  UNL1        0.2458
     20 N         141.0345  137.8967  155.6628 N.am    1  UNL1       -0.3025
     21 H         140.0769  137.9793  155.8760 H       1  UNL1        0.1497
     22 C         141.4743  137.7324  154.2382 C.3     1  UNL1        0.0719
     23 C         142.0571  136.6106  153.4307 C.3     1  UNL1        0.0196
     24 C         142.0963  137.5000  152.2234 C.3     1  UNL1        0.0034
     25 C         141.5135  138.6218  153.0309 C.3     1  UNL1        0.0196
     26 C         139.2041  140.2651  169.0388 C.3     1  UNL1        0.1110
     27 C         140.2077  140.1686  170.1494 C.3     1  UNL1        0.0939
     28 N         141.3985  141.0808  170.1655 N.3     1  UNL1       -0.2712
     29 C         141.3738  142.5583  170.4232 C.3     1  UNL1        0.0722
     30 C         142.7830  143.0662  170.3438 C.3     1  UNL1        0.0188
     31 C         143.6786  141.9025  170.0370 C.3     1  UNL1        0.0188
     32 C         142.8229  140.6755  169.9269 C.3     1  UNL1        0.0722
@<TRIPOS>BOND
     1    18    19    2
     2    19    20   am
     3    20    22    1
     4    22    23    1
     5    23    24    1
     6    24    25    1
     7    19    12    1
     8    12    13   ar
     9    13    14   ar
    10    14    15   ar
    11    15     1    1
    12     1     2   ar
    13     2     3   ar
    14     3     4   ar
    15     4     5   ar
    16     5     6   ar
    17     5     7    1
    18     7     8    1
    19     8     9    1
    20     9    26    1
    21    26    27    1
    22    27    28    1
    23    28    29    1
    24    29    30    1
    25    30    31    1
    26    31    32    1
    27     9    10   am
    28    10    11    2
    29    15    16   ar
    30    16    17   ar
    31    25    22    1
    32    17    12   ar
    33     6     1   ar
    34    32    28    1
    35    10     4    1
    36    20    21    1
@<TRIPOS>MOLECULE
*****
 32 36 0 0 0
SMALL
GASTEIGER

@<TRIPOS>ATOM
      1 C         139.2095  142.4956  160.6612 C.ar    1  UNL1       -0.0003
      2 C         138.3624  141.8119  159.6293 C.ar    1  UNL1        0.0001
      3 C         138.3296  142.3308  158.2223 C.ar    1  UNL1        0.0042
      4 C         139.1439  143.5334  157.8473 C.ar    1  UNL1        0.0497
      5 C         139.9910  144.2171  158.8792 C.ar    1  UNL1       -0.0161
      6 C         140.0238  143.6982  160.2861 C.ar    1  UNL1       -0.0041
      7 C         140.8053  145.4197  158.5041 C.3     1  UNL1        0.0480
      8 C         140.7724  145.9386  157.0972 C.3     1  UNL1        0.0984
      9 N         139.9253  145.2549  156.0652 N.am    1  UNL1       -0.2743
     10 C         139.1110  144.0523  156.4402 C.2     1  UNL1        0.2488
     11 O         138.2639  143.3686  155.4083 O.2     1  UNL1       -0.2699
     12 C         139.3082  140.9389  164.8823 C.ar    1  UNL1        0.0534
     13 C         140.5462  140.8921  164.0365 C.ar    1  UNL1        0.0045
     14 C         140.5133  141.4110  162.6295 C.ar    1  UNL1        0.0001
     15 C         139.2424  141.9767  162.0683 C.ar    1  UNL1       -0.0000
     16 C         138.0045  142.0235  162.9140 C.ar    1  UNL1        0.0001
     17 C         138.0374  141.5046  164.3211 C.ar    1  UNL1        0.0045
     18 O         138.6334  139.1433  166.6346 O.2     1  UNL1       -0.2701
     19 C         139.3411  140.4200  166.2893 C.2     1  UNL1        0.2458
     20 N         140.0818  141.1778  167.3509 N.am    1  UNL1       -0.3025
     21 H         140.5463  142.0157  167.1243 H       1  UNL1        0.1497
     22 C         140.1148  140.6589  168.7580 C.3     1  UNL1        0.0719
     23 C         139.1788  140.7087  169.9291 C.3     1  UNL1        0.0196
     24 C         140.1614  139.9251  170.7478 C.3     1  UNL1        0.0034
     25 C         141.0974  139.8752  169.5767 C.3     1  UNL1        0.0196
     26 C         139.8924  145.7738  154.6582 C.3     1  UNL1        0.1110
     27 C         140.5917  147.0557  154.3150 C.3     1  UNL1        0.0939
     28 N         139.9272  148.3709  154.5956 N.3     1  UNL1       -0.2712
     29 C         140.2036  149.6662  153.8915 C.3     1  UNL1        0.0722
     30 C         139.3169  150.7177  154.4903 C.3     1  UNL1        0.0188
     31 C         138.4926  150.0720  155.5644 C.3     1  UNL1        0.0188
     32 C         138.8698  148.6217  155.6295 C.3     1  UNL1        0.0722
@<TRIPOS>BOND
     1    18    19    2
     2    19    20   am
     3    20    22    1
     4    22    23    1
     5    23    24    1
     6    24    25    1
     7    19    12    1
     8    12    13   ar
     9    13    14   ar
    10    14    15   ar
    11    15     1    1
    12     1     2   ar
    13     2     3   ar
    14     3     4   ar
    15     4     5   ar
    16     5     6   ar
    17     5     7    1
    18     7     8    1
    19     8     9    1
    20     9    26    1
    21    26    27    1
    22    27    28    1
    23    28    29    1
    24    29    30    1
    25    30    31    1
    26    31    32    1
    27     9    10   am
    28    10    11    2
    29    15    16   ar
    30    16    17   ar
    31    25    22    1
    32    17    12   ar
    33     6     1   ar
    34    32    28    1
    35    10     4    1
    36    20    21    1
@<TRIPOS>MOLECULE
*****
 32 36 0 0 0
SMALL
GASTEIGER

@<TRIPOS>ATOM
      1 C         139.7718  143.2204  160.9790 C.ar    1  UNL1       -0.0003
      2 C         138.7612  142.5104  160.1277 C.ar    1  UNL1        0.0001
      3 C         138.6688  142.8150  158.6619 C.ar    1  UNL1        0.0042
      4 C         139.5870  143.8296  158.0474 C.ar    1  UNL1        0.0497
      5 C         140.5975  144.5395  158.8986 C.ar    1  UNL1       -0.0161
      6 C         140.6899  144.2349  160.3644 C.ar    1  UNL1       -0.0041
      7 C         141.5157  145.5541  158.2841 C.3     1  UNL1        0.0480
      8 C         141.4233  145.8587  156.8183 C.3     1  UNL1        0.0984
      9 N         140.4127  145.1487  155.9669 N.am    1  UNL1       -0.2743
     10 C         139.4945  144.1342  156.5815 C.2     1  UNL1        0.2488
     11 O         138.4840  143.4242  155.7302 O.2     1  UNL1       -0.2699
     12 C         140.0491  142.3066  165.3766 C.ar    1  UNL1        0.0534
     13 C         138.8750  141.8175  164.5814 C.ar    1  UNL1        0.0045
     14 C         138.7826  142.1221  163.1156 C.ar    1  UNL1        0.0001
     15 C         139.8642  142.9158  162.4449 C.ar    1  UNL1       -0.0000
     16 C         141.0383  143.4050  163.2399 C.ar    1  UNL1        0.0001
     17 C         141.1308  143.1004  164.7058 C.ar    1  UNL1        0.0045
     18 O         140.4833  143.0918  167.8148 O.2     1  UNL1       -0.2701
     19 C         140.1415  142.0021  166.8424 C.2     1  UNL1        0.2458
     20 N         139.8921  140.6077  167.3358 N.am    1  UNL1       -0.3025
     21 H         139.6678  139.8924  166.6976 H       1  UNL1        0.1497
     22 C         139.9845  140.3030  168.8017 C.3     1  UNL1        0.0719
     23 C         141.0596  139.7886  169.7124 C.3     1  UNL1        0.0196
     24 C         140.1151  139.8722  170.8747 C.3     1  UNL1        0.0034
     25 C         139.0400  140.3867  169.9639 C.3     1  UNL1        0.0196
     26 C         140.3203  145.4533  154.5011 C.3     1  UNL1        0.1110
     27 C         140.7909  146.7785  153.9793 C.3     1  UNL1        0.0939
     28 N         140.0852  148.0382  154.3859 N.3     1  UNL1       -0.2712
     29 C         139.0024  148.1482  155.4182 C.3     1  UNL1        0.0722
     30 C         138.5863  149.5870  155.5019 C.3     1  UNL1        0.0188
     31 C         139.4119  150.3661  154.5214 C.3     1  UNL1        0.0188
     32 C         140.3382  149.4089  153.8317 C.3     1  UNL1        0.0722
@<TRIPOS>BOND
     1    18    19    2
     2    19    20   am
     3    20    22    1
     4    22    23    1
     5    23    24    1
     6    24    25    1
     7    19    12    1
     8    12    13   ar
     9    13    14   ar
    10    14    15   ar
    11    15     1    1
    12     1     2   ar
    13     2     3   ar
    14     3     4   ar
    15     4     5   ar
    16     5     6   ar
    17     5     7    1
    18     7     8    1
    19     8     9    1
    20     9    26    1
    21    26    27    1
    22    27    28    1
    23    28    29    1
    24    29    30    1
    25    30    31    1
    26    31    32    1
    27     9    10   am
    28    10    11    2
    29    15    16   ar
    30    16    17   ar
    31    25    22    1
    32    17    12   ar
    33     6     1   ar
    34    32    28    1
    35    10     4    1
    36    20    21    1
@<TRIPOS>MOLECULE
*****
 32 36 0 0 0
SMALL
GASTEIGER

@<TRIPOS>ATOM
      1 C         140.4214  139.5514  158.6918 C.ar    1  UNL1       -0.0003
      2 C         140.7163  140.9528  158.2458 C.ar    1  UNL1        0.0001
      3 C         140.2360  142.1162  159.0616 C.ar    1  UNL1        0.0042
      4 C         139.4608  141.8783  160.3235 C.ar    1  UNL1        0.0497
      5 C         139.1658  140.4768  160.7695 C.ar    1  UNL1       -0.0161
      6 C         139.6462  139.3134  159.9537 C.ar    1  UNL1       -0.0041
      7 C         138.3906  140.2389  162.0314 C.3     1  UNL1        0.0480
      8 C         137.9103  141.4023  162.8473 C.3     1  UNL1        0.0984
      9 N         138.2052  142.8038  162.4012 N.am    1  UNL1       -0.2743
     10 C         138.9804  143.0418  161.1393 C.2     1  UNL1        0.2488
     11 O         139.2754  144.4432  160.6933 O.2     1  UNL1       -0.2699
     12 C         141.8624  136.0608  156.2444 C.ar    1  UNL1        0.0534
     13 C         142.7350  136.6320  157.3225 C.ar    1  UNL1        0.0045
     14 C         142.2547  137.7955  158.1383 C.ar    1  UNL1        0.0001
     15 C         140.9017  138.3878  157.8760 C.ar    1  UNL1       -0.0000
     16 C         140.0292  137.8166  156.7979 C.ar    1  UNL1        0.0001
     17 C         140.5095  136.6531  155.9821 C.ar    1  UNL1        0.0045
     18 O         142.6003  135.0660  153.9605 O.2     1  UNL1       -0.2701
     19 C         142.3428  134.8973  155.4286 C.2     1  UNL1        0.2458
     20 N         142.5656  133.5651  156.0809 N.am    1  UNL1       -0.3025
     21 H         142.3966  133.4544  157.0444 H       1  UNL1        0.1497
     22 C         143.0460  132.4015  155.2651 C.3     1  UNL1        0.0719
     23 C         142.5674  131.7056  154.0255 C.3     1  UNL1        0.0196
     24 C         143.7254  130.7560  154.1115 C.3     1  UNL1        0.0034
     25 C         144.2039  131.4520  155.3511 C.3     1  UNL1        0.0196
     26 C         137.7249  143.9673  163.2170 C.3     1  UNL1        0.1110
     27 C         138.5807  144.5132  164.3213 C.3     1  UNL1        0.0939
     28 N         140.0610  144.2707  164.3128 N.3     1  UNL1       -0.2712
     29 C         140.7714  143.1302  164.9797 C.3     1  UNL1        0.0722
     30 C         142.2402  143.2807  164.7148 C.3     1  UNL1        0.0188
     31 C         142.4375  144.5141  163.8843 C.3     1  UNL1        0.0188
     32 C         141.0907  145.1259  163.6358 C.3     1  UNL1        0.0722
@<TRIPOS>BOND
     1    18    19    2
     2    19    20   am
     3    20    22    1
     4    22    23    1
     5    23    24    1
     6    24    25    1
     7    19    12    1
     8    12    13   ar
     9    13    14   ar
    10    14    15   ar
    11    15     1    1
    12     1     2   ar
    13     2     3   ar
    14     3     4   ar
    15     4     5   ar
    16     5     6   ar
    17     5     7    1
    18     7     8    1
    19     8     9    1
    20     9    26    1
    21    26    27    1
    22    27    28    1
    23    28    29    1
    24    29    30    1
    25    30    31    1
    26    31    32    1
    27     9    10   am
    28    10    11    2
    29    15    16   ar
    30    16    17   ar
    31    25    22    1
    32    17    12   ar
    33     6     1   ar
    34    32    28    1
    35    10     4    1
    36    20    21    1
@<TRIPOS>MOLECULE
*****
 32 36 0 0 0
SMALL
GASTEIGER

@<TRIPOS>ATOM
      1 C         140.6917  140.4971  164.9995 C.ar    1  UNL1       -0.0003
      2 C         139.8159  141.7128  165.0701 C.ar    1  UNL1        0.0001
      3 C         139.1478  142.2289  163.8303 C.ar    1  UNL1        0.0042
      4 C         139.3555  141.5293  162.5198 C.ar    1  UNL1        0.0497
      5 C         140.2313  140.3136  162.4491 C.ar    1  UNL1       -0.0161
      6 C         140.8994  139.7975  163.6890 C.ar    1  UNL1       -0.0041
      7 C         140.4390  139.6140  161.1386 C.3     1  UNL1        0.0480
      8 C         139.7710  140.1301  159.8988 C.3     1  UNL1        0.0984
      9 N         138.8951  141.3458  159.9694 N.am    1  UNL1       -0.2743
     10 C         138.6874  142.0454  161.2799 C.2     1  UNL1        0.2488
     11 O         137.8116  143.2611  161.3505 O.2     1  UNL1       -0.2699
     12 C         142.6961  138.9487  168.7191 C.ar    1  UNL1        0.0534
     13 C         143.2739  138.6368  167.3704 C.ar    1  UNL1        0.0045
     14 C         142.6058  139.1529  166.1306 C.ar    1  UNL1        0.0001
     15 C         141.3598  139.9810  166.2394 C.ar    1  UNL1       -0.0000
     16 C         140.7820  140.2930  167.5880 C.ar    1  UNL1        0.0001
     17 C         141.4501  139.7768  168.8279 C.ar    1  UNL1        0.0045
     18 O         143.5749  139.3435  171.1319 O.2     1  UNL1       -0.2701
     19 C         143.3642  138.4326  169.9589 C.2     1  UNL1        0.2458
     20 N         143.8216  137.0056  170.0257 N.am    1  UNL1       -0.3025
     21 H         143.6832  136.4078  169.2558 H       1  UNL1        0.1497
     22 C         144.4897  136.4894  171.2655 C.3     1  UNL1        0.0719
     23 C         144.2211  135.3706  172.2278 C.3     1  UNL1        0.0196
     24 C         145.4347  135.7595  173.0189 C.3     1  UNL1        0.0034
     25 C         145.7034  136.8784  172.0566 C.3     1  UNL1        0.0196
     26 C         138.2270  141.8619  158.7295 C.3     1  UNL1        0.1110
     27 C         137.5252  140.9119  157.8049 C.3     1  UNL1        0.0939
     28 N         136.7754  141.4378  156.6169 N.3     1  UNL1       -0.2712
     29 C         135.5439  140.8312  156.0124 C.3     1  UNL1        0.0722
     30 C         135.1328  141.6812  154.8468 C.3     1  UNL1        0.0188
     31 C         136.1103  142.8131  154.7309 C.3     1  UNL1        0.0188
     32 C         137.1255  142.6627  155.8250 C.3     1  UNL1        0.0722
@<TRIPOS>BOND
     1    18    19    2
     2    19    20   am
     3    20    22    1
     4    22    23    1
     5    23    24    1
     6    24    25    1
     7    19    12    1
     8    12    13   ar
     9    13    14   ar
    10    14    15   ar
    11    15     1    1
    12     1     2   ar
    13     2     3   ar
    14     3     4   ar
    15     4     5   ar
    16     5     6   ar
    17     5     7    1
    18     7     8    1
    19     8     9    1
    20     9    26    1
    21    26    27    1
    22    27    28    1
    23    28    29    1
    24    29    30    1
    25    30    31    1
    26    31    32    1
    27     9    10   am
    28    10    11    2
    29    15    16   ar
    30    16    17   ar
    31    25    22    1
    32    17    12   ar
    33     6     1   ar
    34    32    28    1
    35    10     4    1
    36    20    21    1
@<TRIPOS>MOLECULE
*****
 32 36 0 0 0
SMALL
GASTEIGER

@<TRIPOS>ATOM
      1 C         142.3625  141.1417  161.4182 C.ar    1  UNL1       -0.0003
      2 C         140.9881  141.7409  161.4616 C.ar    1  UNL1        0.0001
      3 C         140.1507  141.6079  162.6989 C.ar    1  UNL1        0.0042
      4 C         140.6878  140.8759  163.8929 C.ar    1  UNL1        0.0497
      5 C         142.0622  140.2767  163.8496 C.ar    1  UNL1       -0.0161
      6 C         142.8996  140.4097  162.6122 C.ar    1  UNL1       -0.0041
      7 C         142.5992  139.5447  165.0436 C.3     1  UNL1        0.0480
      8 C         141.7618  139.4117  166.2809 C.3     1  UNL1        0.0984
      9 N         140.3873  140.0109  166.3243 N.am    1  UNL1       -0.2743
     10 C         139.8503  140.7430  165.1303 C.2     1  UNL1        0.2488
     11 O         138.4759  141.3421  165.1736 O.2     1  UNL1       -0.2699
     12 C         144.8749  141.5405  157.7061 C.ar    1  UNL1        0.0534
     13 C         144.0903  140.2853  157.9496 C.ar    1  UNL1        0.0045
     14 C         143.2529  140.1525  159.1869 C.ar    1  UNL1        0.0001
     15 C         143.2000  141.2747  160.1808 C.ar    1  UNL1       -0.0000
     16 C         143.9845  142.5297  159.9374 C.ar    1  UNL1        0.0001
     17 C         144.8220  142.6626  158.7000 C.ar    1  UNL1        0.0045
     18 O         145.6686  140.6063  155.4154 O.2     1  UNL1       -0.2701
     19 C         145.7123  141.6733  156.4688 C.2     1  UNL1        0.2458
     20 N         146.5934  142.8732  156.2848 N.am    1  UNL1       -0.3025
     21 H         146.6221  143.5735  156.9762 H       1  UNL1        0.1497
     22 C         147.4309  143.0061  155.0474 C.3     1  UNL1        0.0719
     23 C         148.6327  142.2958  154.4987 C.3     1  UNL1        0.0196
     24 C         148.6152  143.1941  153.2975 C.3     1  UNL1        0.0034
     25 C         147.4133  143.9044  153.8463 C.3     1  UNL1        0.0196
     26 C         139.5499  139.8779  167.5616 C.3     1  UNL1        0.1110
     27 C         140.1858  140.0023  168.9145 C.3     1  UNL1        0.0939
     28 N         140.8349  141.2916  169.3224 N.3     1  UNL1       -0.2712
     29 C         140.1312  142.5925  169.5727 C.3     1  UNL1        0.0722
     30 C         141.1631  143.6113  169.9567 C.3     1  UNL1        0.0188
     31 C         142.5045  142.9400  169.9436 C.3     1  UNL1        0.0188
     32 C         142.3017  141.5064  169.5517 C.3     1  UNL1        0.0722
@<TRIPOS>BOND
     1    18    19    2
     2    19    20   am
     3    20    22    1
     4    22    23    1
     5    23    24    1
     6    24    25    1
     7    19    12    1
     8    12    13   ar
     9    13    14   ar
    10    14    15   ar
    11    15     1    1
    12     1     2   ar
    13     2     3   ar
    14     3     4   ar
    15     4     5   ar
    16     5     6   ar
    17     5     7    1
    18     7     8    1
    19     8     9    1
    20     9    26    1
    21    26    27    1
    22    27    28    1
    23    28    29    1
    24    29    30    1
    25    30    31    1
    26    31    32    1
    27     9    10   am
    28    10    11    2
    29    15    16   ar
    30    16    17   ar
    31    25    22    1
    32    17    12   ar
    33     6     1   ar
    34    32    28    1
    35    10     4    1
    36    20    21    1
@<TRIPOS>MOLECULE
*****
 32 36 0 0 0
SMALL
GASTEIGER

@<TRIPOS>ATOM
      1 C         140.6057  139.7052  162.6972 C.ar    1  UNL1       -0.0003
      2 C         141.9798  139.1105  162.7872 C.ar    1  UNL1        0.0001
      3 C         142.6200  138.9010  164.1274 C.ar    1  UNL1        0.0042
      4 C         141.8861  139.2861  165.3776 C.ar    1  UNL1        0.0497
      5 C         140.5120  139.8808  165.2876 C.ar    1  UNL1       -0.0161
      6 C         139.8718  140.0903  163.9474 C.ar    1  UNL1       -0.0041
      7 C         139.7781  140.2659  166.5378 C.3     1  UNL1        0.0480
      8 C         140.4183  140.0564  167.8780 C.3     1  UNL1        0.0984
      9 N         141.7925  139.4617  167.9681 N.am    1  UNL1       -0.2743
     10 C         142.5264  139.0766  166.7179 C.2     1  UNL1        0.2488
     11 O         143.9005  138.4819  166.8078 O.2     1  UNL1       -0.2699
     12 C         138.6849  140.3337  158.6765 C.ar    1  UNL1        0.0534
     13 C         139.5886  139.1576  158.9004 C.ar    1  UNL1        0.0045
     14 C         140.2288  138.9481  160.2406 C.ar    1  UNL1        0.0001
     15 C         139.9654  139.9147  161.3569 C.ar    1  UNL1       -0.0000
     16 C         139.0617  141.0908  161.1331 C.ar    1  UNL1        0.0001
     17 C         138.4214  141.3003  159.7929 C.ar    1  UNL1        0.0045
     18 O         138.1186  139.4676  156.2934 O.2     1  UNL1       -0.2701
     19 C         138.0446  140.5432  157.3363 C.2     1  UNL1        0.2458
     20 N         137.3304  141.8283  157.0390 N.am    1  UNL1       -0.3025
     21 H         137.2818  142.5342  157.7235 H       1  UNL1        0.1497
     22 C         136.6901  142.0378  155.6987 C.3     1  UNL1        0.0719
     23 C         137.0239  142.8430  154.4780 C.3     1  UNL1        0.0196
     24 C         135.7846  142.3341  153.8034 C.3     1  UNL1        0.0034
     25 C         135.4508  141.5289  155.0242 C.3     1  UNL1        0.0196
     26 C         142.4327  139.2522  169.3083 C.3     1  UNL1        0.1110
     27 C         142.7203  140.4281  170.1941 C.3     1  UNL1        0.0939
     28 N         141.7709  141.5888  170.2317 N.3     1  UNL1       -0.2712
     29 C         141.9676  142.9110  169.5513 C.3     1  UNL1        0.0722
     30 C         140.7763  143.7705  169.8554 C.3     1  UNL1        0.0188
     31 C         139.8435  142.9793  170.7237 C.3     1  UNL1        0.0188
     32 C         140.4582  141.6310  170.9563 C.3     1  UNL1        0.0722
@<TRIPOS>BOND
     1    18    19    2
     2    19    20   am
     3    20    22    1
     4    22    23    1
     5    23    24    1
     6    24    25    1
     7    19    12    1
     8    12    13   ar
     9    13    14   ar
    10    14    15   ar
    11    15     1    1
    12     1     2   ar
    13     2     3   ar
    14     3     4   ar
    15     4     5   ar
    16     5     6   ar
    17     5     7    1
    18     7     8    1
    19     8     9    1
    20     9    26    1
    21    26    27    1
    22    27    28    1
    23    28    29    1
    24    29    30    1
    25    30    31    1
    26    31    32    1
    27     9    10   am
    28    10    11    2
    29    15    16   ar
    30    16    17   ar
    31    25    22    1
    32    17    12   ar
    33     6     1   ar
    34    32    28    1
    35    10     4    1
    36    20    21    1
