@<TRIPOS>MOLECULE
*****
 26 28 0 0 0
SMALL
GASTEIGER

@<TRIPOS>ATOM
      1 P         141.2283  141.4038  164.3261 P.3     1  UNL1        0.2265
      2 O         140.0373  142.1224  163.7645 O.2     1  UNL1       -0.2903
      3 C         140.3323  140.3095  164.8260 C.ar    1  UNL1        0.0498
      4 C         139.4057  140.5660  165.9773 C.ar    1  UNL1        0.0046
      5 C         138.5098  139.4718  166.4771 C.ar    1  UNL1        0.0002
      6 C         138.5405  138.1210  165.8257 C.ar    1  UNL1        0.0000
      7 C         139.4671  137.8645  164.6744 C.ar    1  UNL1        0.0002
      8 C         140.3630  138.9588  164.1746 C.ar    1  UNL1        0.0046
      9 C         142.1242  142.4981  163.8263 C.ar    1  UNL1        0.0498
     10 C         142.4532  142.5896  162.3657 C.ar    1  UNL1        0.0046
     11 C         143.3491  143.6839  161.8658 C.ar    1  UNL1        0.0002
     12 C         143.9161  144.6866  162.8266 C.ar    1  UNL1        0.0000
     13 C         143.5871  144.5951  164.2871 C.ar    1  UNL1        0.0002
     14 C         142.6912  143.5008  164.7870 C.ar    1  UNL1        0.0046
     15 N         142.4192  140.6853  164.8877 N.pl3   1  UNL1       -0.2616
     16 C         142.5442  140.4845  166.3690 C.ar    1  UNL1        0.0539
     17 C         142.6795  139.0997  166.9294 C.ar    1  UNL1        0.0149
     18 C         142.8045  138.8990  168.4106 C.ar    1  UNL1        0.0020
     19 C         142.7942  140.0831  169.3314 C.ar    1  UNL1        0.0104
     20 C         142.6588  141.4678  168.7710 C.ar    1  UNL1        0.0697
     21 C         142.5338  141.6685  167.2898 C.ar    1  UNL1        0.0251
     22 C         142.6485  142.6519  169.6919 C.1     1  UNL1        0.1005
     23 N         142.6381  143.8359  170.6127 N.1     1  UNL1       -0.1908
     24 C         143.4851  140.1675  163.9681 C.3     1  UNL1        0.0974
     25 C         145.7417  141.4485  163.8381 C.3     1  UNL1        0.0018
     26 C         144.9305  140.2946  164.3485 C.3     1  UNL1        0.0218
@<TRIPOS>BOND
     1    25    26    1
     2    26    24    1
     3    24    15    1
     4    15    16    1
     5    16    17   ar
     6    17    18   ar
     7    18    19   ar
     8    19    20   ar
     9    20    22    1
    10    22    23    3
    11    20    21   ar
    12    15     1    1
    13     1     2    2
    14     1     3    1
    15     3     4   ar
    16     4     5   ar
    17     5     6   ar
    18     6     7   ar
    19     7     8   ar
    20     1     9    1
    21     9    10   ar
    22    10    11   ar
    23    11    12   ar
    24    12    13   ar
    25    13    14   ar
    26    21    16   ar
    27     8     3   ar
    28    14     9   ar
@<TRIPOS>MOLECULE
*****
 26 28 0 0 0
SMALL
GASTEIGER

@<TRIPOS>ATOM
      1 P         141.2267  141.3915  164.2995 P.3     1  UNL1        0.2265
      2 O         140.0341  142.1137  163.7462 O.2     1  UNL1       -0.2903
      3 C         142.1222  142.4845  163.7960 C.ar    1  UNL1        0.0498
      4 C         142.4749  142.5540  162.3398 C.ar    1  UNL1        0.0046
      5 C         143.3703  143.6470  161.8363 C.ar    1  UNL1        0.0002
      6 C         143.9131  144.6705  162.7891 C.ar    1  UNL1        0.0000
      7 C         143.5604  144.6009  164.2453 C.ar    1  UNL1        0.0002
      8 C         142.6650  143.5079  164.7488 C.ar    1  UNL1        0.0046
      9 C         140.3312  140.2985  164.8030 C.ar    1  UNL1        0.0498
     10 C         140.3570  138.9478  164.1511 C.ar    1  UNL1        0.0046
     11 C         139.4615  137.8548  164.6546 C.ar    1  UNL1        0.0002
     12 C         138.5403  138.1125  165.8099 C.ar    1  UNL1        0.0000
     13 C         138.5145  139.4632  166.4618 C.ar    1  UNL1        0.0002
     14 C         139.4100  140.5562  165.9583 C.ar    1  UNL1        0.0046
     15 N         142.4193  140.6693  164.8528 N.pl3   1  UNL1       -0.2616
     16 C         142.5537  140.4677  166.3332 C.ar    1  UNL1        0.0539
     17 C         142.7186  139.0847  166.8899 C.ar    1  UNL1        0.0149
     18 C         142.8530  138.8832  168.3702 C.ar    1  UNL1        0.0020
     19 C         142.8225  140.0647  169.2938 C.ar    1  UNL1        0.0104
     20 C         142.6576  141.4478  168.7371 C.ar    1  UNL1        0.0697
     21 C         142.5232  141.6493  167.2568 C.ar    1  UNL1        0.0251
     22 C         142.6272  142.6293  169.6607 C.1     1  UNL1        0.1005
     23 N         142.5967  143.8109  170.5842 N.1     1  UNL1       -0.1908
     24 C         143.4774  140.1487  163.9259 C.3     1  UNL1        0.0974
     25 C         145.7278  141.4471  163.9145 C.3     1  UNL1        0.0018
     26 C         144.9242  140.2439  164.3103 C.3     1  UNL1        0.0218
@<TRIPOS>BOND
     1    25    26    1
     2    26    24    1
     3    24    15    1
     4    15    16    1
     5    16    17   ar
     6    17    18   ar
     7    18    19   ar
     8    19    20   ar
     9    20    22    1
    10    22    23    3
    11    20    21   ar
    12    15     1    1
    13     1     2    2
    14     1     3    1
    15     3     4   ar
    16     4     5   ar
    17     5     6   ar
    18     6     7   ar
    19     7     8   ar
    20     1     9    1
    21     9    10   ar
    22    10    11   ar
    23    11    12   ar
    24    12    13   ar
    25    13    14   ar
    26    21    16   ar
    27     8     3   ar
    28    14     9   ar
@<TRIPOS>MOLECULE
*****
 26 28 0 0 0
SMALL
GASTEIGER

@<TRIPOS>ATOM
      1 P         140.2937  141.3049  164.2332 P.3     1  UNL1        0.2265
      2 O         139.0447  141.5829  163.4505 O.2     1  UNL1       -0.2903
      3 C         140.9168  142.5531  163.6822 C.ar    1  UNL1        0.0498
      4 C         140.9184  143.8130  164.4963 C.ar    1  UNL1        0.0046
      5 C         141.5415  145.0612  163.9452 C.ar    1  UNL1        0.0002
      6 C         142.1630  145.0496  162.5801 C.ar    1  UNL1        0.0000
      7 C         142.1614  143.7898  161.7661 C.ar    1  UNL1        0.0002
      8 C         141.5383  142.5415  162.3171 C.ar    1  UNL1        0.0046
      9 C         139.6706  140.0567  164.7843 C.ar    1  UNL1        0.0498
     10 C         138.5822  140.1524  165.8120 C.ar    1  UNL1        0.0046
     11 C         137.9591  138.9041  166.3630 C.ar    1  UNL1        0.0002
     12 C         138.4244  137.5602  165.8863 C.ar    1  UNL1        0.0000
     13 C         139.5128  137.4645  164.8586 C.ar    1  UNL1        0.0002
     14 C         140.1359  138.7127  164.3076 C.ar    1  UNL1        0.0046
     15 N         141.5427  141.0269  165.0159 N.pl3   1  UNL1       -0.2616
     16 C         141.5029  141.0230  166.5155 C.ar    1  UNL1        0.0539
     17 C         141.9195  139.7976  167.2736 C.ar    1  UNL1        0.0149
     18 C         141.8796  139.7937  168.7730 C.ar    1  UNL1        0.0020
     19 C         141.4231  141.0151  169.5143 C.ar    1  UNL1        0.0104
     20 C         141.0064  142.2405  168.7562 C.ar    1  UNL1        0.0697
     21 C         141.0463  142.2444  167.2568 C.ar    1  UNL1        0.0251
     22 C         140.5499  143.4620  169.4976 C.1     1  UNL1        0.1005
     23 N         140.0933  144.6835  170.2389 N.1     1  UNL1       -0.1908
     24 C         142.8316  140.7530  164.2992 C.3     1  UNL1        0.0974
     25 C         144.4910  142.7097  164.7087 C.3     1  UNL1        0.0018
     26 C         144.1255  141.2630  164.8613 C.3     1  UNL1        0.0218
@<TRIPOS>BOND
     1    25    26    1
     2    26    24    1
     3    24    15    1
     4    15    16    1
     5    16    17   ar
     6    17    18   ar
     7    18    19   ar
     8    19    20   ar
     9    20    22    1
    10    22    23    3
    11    20    21   ar
    12    15     1    1
    13     1     2    2
    14     1     3    1
    15     3     4   ar
    16     4     5   ar
    17     5     6   ar
    18     6     7   ar
    19     7     8   ar
    20     1     9    1
    21     9    10   ar
    22    10    11   ar
    23    11    12   ar
    24    12    13   ar
    25    13    14   ar
    26    21    16   ar
    27     8     3   ar
    28    14     9   ar
@<TRIPOS>MOLECULE
*****
 26 28 0 0 0
SMALL
GASTEIGER

@<TRIPOS>ATOM
      1 P         140.0462  141.2097  164.3486 P.3     1  UNL1        0.2265
      2 O         138.7694  141.4746  163.6072 O.2     1  UNL1       -0.2903
      3 C         139.4532  139.9569  164.9221 C.ar    1  UNL1        0.0498
      4 C         139.8774  138.6176  164.3966 C.ar    1  UNL1        0.0046
      5 C         139.2845  137.3648  164.9701 C.ar    1  UNL1        0.0002
      6 C         138.2673  137.4513  166.0691 C.ar    1  UNL1        0.0000
      7 C         137.8430  138.7906  166.5946 C.ar    1  UNL1        0.0002
      8 C         138.4360  140.0434  166.0211 C.ar    1  UNL1        0.0046
      9 C         140.6391  142.4625  163.7751 C.ar    1  UNL1        0.0498
     10 C         141.2044  142.4569  162.3857 C.ar    1  UNL1        0.0046
     11 C         141.7974  143.7097  161.8123 C.ar    1  UNL1        0.0002
     12 C         141.8250  144.9681  162.6281 C.ar    1  UNL1        0.0000
     13 C         141.2597  144.9737  164.0175 C.ar    1  UNL1        0.0002
     14 C         140.6668  143.7209  164.5910 C.ar    1  UNL1        0.0046
     15 N         141.3229  140.9448  165.0900 N.pl3   1  UNL1       -0.2616
     16 C         141.3406  140.9799  166.5895 C.ar    1  UNL1        0.0539
     17 C         141.7990  139.7790  167.3625 C.ar    1  UNL1        0.0149
     18 C         141.8166  139.8142  168.8620 C.ar    1  UNL1        0.0020
     19 C         141.3759  141.0503  169.5884 C.ar    1  UNL1        0.0104
     20 C         140.9175  142.2513  168.8154 C.ar    1  UNL1        0.0697
     21 C         140.8999  142.2161  167.3160 C.ar    1  UNL1        0.0251
     22 C         140.4768  143.4874  169.5419 C.1     1  UNL1        0.1005
     23 N         140.0361  144.7235  170.2683 N.1     1  UNL1       -0.1908
     24 C         142.5820  140.6447  164.3319 C.3     1  UNL1        0.0974
     25 C         144.2076  142.5966  164.8777 C.3     1  UNL1        0.0018
     26 C         143.9036  141.1280  164.8516 C.3     1  UNL1        0.0218
@<TRIPOS>BOND
     1    25    26    1
     2    26    24    1
     3    24    15    1
     4    15    16    1
     5    16    17   ar
     6    17    18   ar
     7    18    19   ar
     8    19    20   ar
     9    20    22    1
    10    22    23    3
    11    20    21   ar
    12    15     1    1
    13     1     2    2
    14     1     3    1
    15     3     4   ar
    16     4     5   ar
    17     5     6   ar
    18     6     7   ar
    19     7     8   ar
    20     1     9    1
    21     9    10   ar
    22    10    11   ar
    23    11    12   ar
    24    12    13   ar
    25    13    14   ar
    26    21    16   ar
    27     8     3   ar
    28    14     9   ar
@<TRIPOS>MOLECULE
*****
 26 28 0 0 0
SMALL
GASTEIGER

@<TRIPOS>ATOM
      1 P         141.6073  142.6162  165.1083 P.3     1  UNL1        0.2265
      2 O         143.0614  142.9827  165.1419 O.2     1  UNL1       -0.2903
      3 C         141.7698  141.8538  166.3898 C.ar    1  UNL1        0.0498
      4 C         142.5263  140.5586  166.4011 C.ar    1  UNL1        0.0046
      5 C         142.6889  139.7962  167.6826 C.ar    1  UNL1        0.0002
      6 C         142.0948  140.3289  168.9528 C.ar    1  UNL1        0.0000
      7 C         141.3383  141.6240  168.9414 C.ar    1  UNL1        0.0002
      8 C         141.1758  142.3865  167.6599 C.ar    1  UNL1        0.0046
      9 C         141.4448  143.3787  163.8268 C.ar    1  UNL1        0.0498
     10 C         141.2346  144.8635  163.8590 C.ar    1  UNL1        0.0046
     11 C         141.0721  145.6260  162.5774 C.ar    1  UNL1        0.0002
     12 C         141.1197  144.9036  161.2637 C.ar    1  UNL1        0.0000
     13 C         141.3299  143.4188  161.2316 C.ar    1  UNL1        0.0002
     14 C         141.4924  142.6563  162.5131 C.ar    1  UNL1        0.0046
     15 N         140.1531  142.2498  165.0746 N.pl3   1  UNL1       -0.2616
     16 C         139.7447  140.8101  164.9715 C.ar    1  UNL1        0.0539
     17 C         140.2340  139.9718  163.8280 C.ar    1  UNL1        0.0149
     18 C         139.8256  138.5322  163.7248 C.ar    1  UNL1        0.0020
     19 C         138.9278  137.9309  164.7653 C.ar    1  UNL1        0.0104
     20 C         138.4385  138.7692  165.9088 C.ar    1  UNL1        0.0697
     21 C         138.8469  140.2088  166.0119 C.ar    1  UNL1        0.0251
     22 C         137.5407  138.1679  166.9492 C.1     1  UNL1        0.1005
     23 N         136.6429  137.5667  167.9896 N.1     1  UNL1       -0.1908
     24 C         139.1074  143.3229  165.1442 C.3     1  UNL1        0.0974
     25 C         137.7947  143.7591  162.9450 C.3     1  UNL1        0.0018
     26 C         137.8503  143.1987  164.3352 C.3     1  UNL1        0.0218
@<TRIPOS>BOND
     1    25    26    1
     2    26    24    1
     3    24    15    1
     4    15    16    1
     5    16    17   ar
     6    17    18   ar
     7    18    19   ar
     8    19    20   ar
     9    20    22    1
    10    22    23    3
    11    20    21   ar
    12    15     1    1
    13     1     2    2
    14     1     3    1
    15     3     4   ar
    16     4     5   ar
    17     5     6   ar
    18     6     7   ar
    19     7     8   ar
    20     1     9    1
    21     9    10   ar
    22    10    11   ar
    23    11    12   ar
    24    12    13   ar
    25    13    14   ar
    26    21    16   ar
    27     8     3   ar
    28    14     9   ar
@<TRIPOS>MOLECULE
*****
 26 28 0 0 0
SMALL
GASTEIGER

@<TRIPOS>ATOM
      1 P         141.2354  141.8907  163.9238 P.3     1  UNL1        0.2265
      2 O         141.8338  142.7632  162.8605 O.2     1  UNL1       -0.2903
      3 C         139.9820  142.7141  163.8941 C.ar    1  UNL1        0.0498
      4 C         138.9017  142.4001  162.9020 C.ar    1  UNL1        0.0046
      5 C         137.6482  143.2235  162.8723 C.ar    1  UNL1        0.0002
      6 C         137.4751  144.3609  163.8347 C.ar    1  UNL1        0.0000
      7 C         138.5554  144.6749  164.8268 C.ar    1  UNL1        0.0002
      8 C         139.8088  143.8515  164.8565 C.ar    1  UNL1        0.0046
      9 C         142.4889  141.0673  163.9535 C.ar    1  UNL1        0.0498
     10 C         143.7822  141.6857  164.3950 C.ar    1  UNL1        0.0046
     11 C         145.0356  140.8623  164.4247 C.ar    1  UNL1        0.0002
     12 C         144.9958  139.4205  164.0129 C.ar    1  UNL1        0.0000
     13 C         143.7025  138.8021  163.5714 C.ar    1  UNL1        0.0002
     14 C         142.4490  139.6255  163.5417 C.ar    1  UNL1        0.0046
     15 N         140.6371  141.0182  164.9871 N.pl3   1  UNL1       -0.2616
     16 C         141.0937  141.1496  166.4099 C.ar    1  UNL1        0.0539
     17 C         142.0261  140.1310  166.9955 C.ar    1  UNL1        0.0149
     18 C         142.4826  140.2625  168.4182 C.ar    1  UNL1        0.0020
     19 C         142.0067  141.4126  169.2554 C.ar    1  UNL1        0.0104
     20 C         141.0743  142.4312  168.6698 C.ar    1  UNL1        0.0697
     21 C         140.6177  142.2997  167.2471 C.ar    1  UNL1        0.0251
     22 C         140.5984  143.5813  169.5070 C.1     1  UNL1        0.1005
     23 N         140.1225  144.7313  170.3441 N.1     1  UNL1       -0.1908
     24 C         139.5821  140.0142  164.6277 C.3     1  UNL1        0.0974
     25 C         138.1859  138.6008  166.3019 C.3     1  UNL1        0.0018
     26 C         138.3714  139.8540  165.4987 C.3     1  UNL1        0.0218
@<TRIPOS>BOND
     1    25    26    1
     2    26    24    1
     3    24    15    1
     4    15    16    1
     5    16    17   ar
     6    17    18   ar
     7    18    19   ar
     8    19    20   ar
     9    20    22    1
    10    22    23    3
    11    20    21   ar
    12    15     1    1
    13     1     2    2
    14     1     3    1
    15     3     4   ar
    16     4     5   ar
    17     5     6   ar
    18     6     7   ar
    19     7     8   ar
    20     1     9    1
    21     9    10   ar
    22    10    11   ar
    23    11    12   ar
    24    12    13   ar
    25    13    14   ar
    26    21    16   ar
    27     8     3   ar
    28    14     9   ar
@<TRIPOS>MOLECULE
*****
 26 28 0 0 0
SMALL
GASTEIGER

@<TRIPOS>ATOM
      1 P         141.6776  141.0971  164.0594 P.3     1  UNL1        0.2265
      2 O         142.5310  140.5802  162.9393 O.2     1  UNL1       -0.2903
      3 C         140.9994  139.7628  164.1582 C.ar    1  UNL1        0.0498
      4 C         141.7954  138.5410  164.5094 C.ar    1  UNL1        0.0046
      5 C         141.1172  137.2068  164.6083 C.ar    1  UNL1        0.0002
      6 C         139.6429  137.0943  164.3559 C.ar    1  UNL1        0.0000
      7 C         138.8468  138.3161  164.0047 C.ar    1  UNL1        0.0002
      8 C         139.5251  139.6504  163.9059 C.ar    1  UNL1        0.0046
      9 C         142.3559  142.4313  163.9605 C.ar    1  UNL1        0.0498
     10 C         143.4853  142.7691  164.8879 C.ar    1  UNL1        0.0046
     11 C         144.1636  144.1033  164.7891 C.ar    1  UNL1        0.0002
     12 C         143.7123  145.0998  163.7628 C.ar    1  UNL1        0.0000
     13 C         142.5829  144.7621  162.8353 C.ar    1  UNL1        0.0002
     14 C         141.9046  143.4278  162.9342 C.ar    1  UNL1        0.0046
     15 N         140.8242  141.6139  165.1794 N.pl3   1  UNL1       -0.2616
     16 C         141.0302  141.1053  166.5755 C.ar    1  UNL1        0.0539
     17 C         142.4197  140.8886  167.0973 C.ar    1  UNL1        0.0149
     18 C         142.6257  140.3800  168.4933 C.ar    1  UNL1        0.0020
     19 C         141.4422  140.0881  169.3675 C.ar    1  UNL1        0.0104
     20 C         140.0527  140.3048  168.8457 C.ar    1  UNL1        0.0697
     21 C         139.8467  140.8134  167.4497 C.ar    1  UNL1        0.0251
     22 C         138.8692  140.0129  169.7198 C.1     1  UNL1        0.1005
     23 N         137.6857  139.7211  170.5940 N.1     1  UNL1       -0.1908
     24 C         139.7648  142.6392  164.9035 C.3     1  UNL1        0.0974
     25 C         138.6473  144.9193  165.4538 C.3     1  UNL1        0.0018
     26 C         139.6398  143.8451  165.7869 C.3     1  UNL1        0.0218
@<TRIPOS>BOND
     1    25    26    1
     2    26    24    1
     3    24    15    1
     4    15    16    1
     5    16    17   ar
     6    17    18   ar
     7    18    19   ar
     8    19    20   ar
     9    20    22    1
    10    22    23    3
    11    20    21   ar
    12    15     1    1
    13     1     2    2
    14     1     3    1
    15     3     4   ar
    16     4     5   ar
    17     5     6   ar
    18     6     7   ar
    19     7     8   ar
    20     1     9    1
    21     9    10   ar
    22    10    11   ar
    23    11    12   ar
    24    12    13   ar
    25    13    14   ar
    26    21    16   ar
    27     8     3   ar
    28    14     9   ar
@<TRIPOS>MOLECULE
*****
 26 28 0 0 0
SMALL
GASTEIGER

@<TRIPOS>ATOM
      1 P         141.4410  141.2506  163.8461 P.3     1  UNL1        0.2265
      2 O         142.5403  140.6498  163.0212 O.2     1  UNL1       -0.2903
      3 C         140.5847  140.0479  163.5811 C.ar    1  UNL1        0.0498
      4 C         139.2878  140.1985  162.8427 C.ar    1  UNL1        0.0046
      5 C         138.4316  138.9958  162.5776 C.ar    1  UNL1        0.0002
      6 C         138.8722  137.6424  163.0511 C.ar    1  UNL1        0.0000
      7 C         140.1690  137.4918  163.7896 C.ar    1  UNL1        0.0002
      8 C         141.0253  138.6945  164.0546 C.ar    1  UNL1        0.0046
      9 C         142.2972  142.4534  164.1111 C.ar    1  UNL1        0.0498
     10 C         143.5353  142.3230  164.9479 C.ar    1  UNL1        0.0046
     11 C         144.3916  143.5257  165.2129 C.ar    1  UNL1        0.0002
     12 C         144.0098  144.8589  164.6412 C.ar    1  UNL1        0.0000
     13 C         142.7717  144.9893  163.8044 C.ar    1  UNL1        0.0002
     14 C         141.9154  143.7865  163.5394 C.ar    1  UNL1        0.0046
     15 N         140.3417  141.8515  164.6711 N.pl3   1  UNL1       -0.2616
     16 C         140.2281  141.5151  166.1285 C.ar    1  UNL1        0.0539
     17 C         139.4077  140.3376  166.5647 C.ar    1  UNL1        0.0149
     18 C         139.2941  140.0012  168.0221 C.ar    1  UNL1        0.0020
     19 C         140.0011  140.8423  169.0432 C.ar    1  UNL1        0.0104
     20 C         140.8216  142.0198  168.6070 C.ar    1  UNL1        0.0697
     21 C         140.9351  142.3562  167.1497 C.ar    1  UNL1        0.0251
     22 C         141.5286  142.8609  169.6282 C.1     1  UNL1        0.1005
     23 N         142.2356  143.7020  170.6493 N.1     1  UNL1       -0.1908
     24 C         139.3560  142.7887  164.0387 C.3     1  UNL1        0.0974
     25 C         138.6572  144.8903  165.3970 C.3     1  UNL1        0.0018
     26 C         138.3549  143.5111  164.8908 C.3     1  UNL1        0.0218
@<TRIPOS>BOND
     1    25    26    1
     2    26    24    1
     3    24    15    1
     4    15    16    1
     5    16    17   ar
     6    17    18   ar
     7    18    19   ar
     8    19    20   ar
     9    20    22    1
    10    22    23    3
    11    20    21   ar
    12    15     1    1
    13     1     2    2
    14     1     3    1
    15     3     4   ar
    16     4     5   ar
    17     5     6   ar
    18     6     7   ar
    19     7     8   ar
    20     1     9    1
    21     9    10   ar
    22    10    11   ar
    23    11    12   ar
    24    12    13   ar
    25    13    14   ar
    26    21    16   ar
    27     8     3   ar
    28    14     9   ar
@<TRIPOS>MOLECULE
*****
 26 28 0 0 0
SMALL
GASTEIGER

@<TRIPOS>ATOM
      1 P         141.4540  141.2399  163.8394 P.3     1  UNL1        0.2265
      2 O         142.5596  140.6380  163.0236 O.2     1  UNL1       -0.2903
      3 C         142.3037  142.4485  164.0991 C.ar    1  UNL1        0.0498
      4 C         141.9113  143.7782  163.5266 C.ar    1  UNL1        0.0046
      5 C         142.7609  144.9868  163.7864 C.ar    1  UNL1        0.0002
      6 C         144.0029  144.8656  164.6186 C.ar    1  UNL1        0.0000
      7 C         144.3953  143.5359  165.1911 C.ar    1  UNL1        0.0002
      8 C         143.5457  142.3273  164.9314 C.ar    1  UNL1        0.0046
      9 C         140.6044  140.0313  163.5796 C.ar    1  UNL1        0.0498
     10 C         141.0491  138.6835  164.0651 C.ar    1  UNL1        0.0046
     11 C         140.1995  137.4749  163.8053 C.ar    1  UNL1        0.0002
     12 C         138.9052  137.6141  163.0601 C.ar    1  UNL1        0.0000
     13 C         138.4605  138.9619  162.5747 C.ar    1  UNL1        0.0002
     14 C         139.3101  140.1705  162.8345 C.ar    1  UNL1        0.0046
     15 N         140.3485  141.8417  164.6552 N.pl3   1  UNL1       -0.2616
     16 C         140.2234  141.5065  166.1120 C.ar    1  UNL1        0.0539
     17 C         139.4142  140.3189  166.5415 C.ar    1  UNL1        0.0149
     18 C         139.2891  139.9837  167.9981 C.ar    1  UNL1        0.0020
     19 C         139.9733  140.8362  169.0253 C.ar    1  UNL1        0.0104
     20 C         140.7825  142.0239  168.5958 C.ar    1  UNL1        0.0697
     21 C         140.9076  142.3591  167.1391 C.ar    1  UNL1        0.0251
     22 C         141.4667  142.8764  169.6230 C.1     1  UNL1        0.1005
     23 N         142.1509  143.7289  170.6502 N.1     1  UNL1       -0.1908
     24 C         139.3681  142.7788  164.0143 C.3     1  UNL1        0.0974
     25 C         138.6325  144.8751  165.3613 C.3     1  UNL1        0.0018
     26 C         138.3512  143.4911  164.8561 C.3     1  UNL1        0.0218
@<TRIPOS>BOND
     1    25    26    1
     2    26    24    1
     3    24    15    1
     4    15    16    1
     5    16    17   ar
     6    17    18   ar
     7    18    19   ar
     8    19    20   ar
     9    20    22    1
    10    22    23    3
    11    20    21   ar
    12    15     1    1
    13     1     2    2
    14     1     3    1
    15     3     4   ar
    16     4     5   ar
    17     5     6   ar
    18     6     7   ar
    19     7     8   ar
    20     1     9    1
    21     9    10   ar
    22    10    11   ar
    23    11    12   ar
    24    12    13   ar
    25    13    14   ar
    26    21    16   ar
    27     8     3   ar
    28    14     9   ar
