@<TRIPOS>MOLECULE
*****
 35 39 0 0 0
SMALL
GASTEIGER

@<TRIPOS>ATOM
      1 C         141.9683  139.3940  157.9848 C.2     1  UNL1        0.3045
      2 O         140.7752  140.0572  157.3630 O.2     1  UNL1       -0.2647
      3 N         142.5402  139.9270  159.2651 N.am    1  UNL1       -0.2720
      4 C         143.7333  139.2639  159.8869 C.3     1  UNL1        0.0976
      5 C         144.3051  139.7968  161.1671 C.3     1  UNL1        0.0651
      6 C         143.6839  140.9928  161.8254 C.3     1  UNL1        0.1693
      7 C         142.4908  141.6559  161.2036 C.3     1  UNL1        0.0651
      8 C         141.9189  141.1230  159.9233 C.3     1  UNL1        0.0976
      9 C         143.0504  135.9110  156.6570 C.ar    1  UNL1        0.2501
     10 N         144.0407  136.8037  155.9697 N.ar    1  UNL1       -0.1068
     11 N         143.7559  138.2171  156.3834 N.ar    1  UNL1       -0.1021
     12 C         142.5896  138.1980  157.3264 C.ar    1  UNL1        0.3042
     13 O         142.1536  136.7727  157.4955 O.2     1  UNL1       -0.4122
     14 C         142.8119  131.4339  156.2711 C.ar    1  UNL1        0.1387
     15 C         143.8613  132.0567  157.1434 C.ar    1  UNL1        0.0371
     16 C         143.9408  133.5490  157.2720 C.ar    1  UNL1        0.0078
     17 C         142.9709  134.4187  156.5283 C.ar    1  UNL1        0.0553
     18 C         141.9215  133.7959  155.6560 C.ar    1  UNL1        0.0078
     19 C         141.8420  132.3035  155.5274 C.ar    1  UNL1        0.0371
     20 C         141.6683  129.3180  155.2887 C.3     1  UNL1        0.2525
     21 O         142.7324  129.9416  156.1424 O.3     1  UNL1       -0.4714
     22 O         144.2557  141.5258  163.1057 O.3     1  UNL1       -0.4791
     23 C         143.8051  140.9617  164.4205 C.ar    1  UNL1        0.1384
     24 C         143.2192  141.8666  165.4635 C.ar    1  UNL1        0.0366
     25 C         142.7686  141.3025  166.7783 C.ar    1  UNL1        0.0002
     26 C         142.9040  139.8336  167.0502 C.ar    1  UNL1       -0.0059
     27 C         143.4899  138.9287  166.0072 C.ar    1  UNL1        0.0002
     28 C         143.9405  139.4928  164.6923 C.ar    1  UNL1        0.0366
     29 C         142.4534  139.2695  168.3651 C.3     1  UNL1        0.0993
     30 N         141.5600  140.0758  169.2604 N.3     1  UNL1       -0.2646
     31 C         142.1509  140.8910  170.3723 C.3     1  UNL1        0.1049
     32 C         141.2576  141.6973  171.2678 C.3     1  UNL1        0.1595
     33 O         139.7733  141.6884  171.0513 O.3     1  UNL1       -0.3508
     34 C         139.1824  140.8732  169.9394 C.3     1  UNL1        0.1595
     35 C         140.0758  140.0669  169.0440 C.3     1  UNL1        0.1049
@<TRIPOS>BOND
     1    20    21    1
     2    21    14    1
     3    14    15   ar
     4    15    16   ar
     5    16    17   ar
     6    17     9    1
     7     9    10   ar
     8    10    11   ar
     9    11    12   ar
    10    12     1    1
    11     1     2    2
    12     1     3   am
    13     3     4    1
    14     4     5    1
    15     5     6    1
    16     6    22    1
    17    22    23    1
    18    23    24   ar
    19    24    25   ar
    20    25    26   ar
    21    26    29    1
    22    29    30    1
    23    30    31    1
    24    31    32    1
    25    32    33    1
    26    33    34    1
    27    34    35    1
    28    26    27   ar
    29    27    28   ar
    30     6     7    1
    31     7     8    1
    32    12    13   ar
    33    17    18   ar
    34    18    19   ar
    35    19    14   ar
    36    13     9   ar
    37     8     3    1
    38    28    23   ar
    39    35    30    1
@<TRIPOS>MOLECULE
*****
 35 39 0 0 0
SMALL
GASTEIGER

@<TRIPOS>ATOM
      1 C         142.9605  139.1393  157.7024 C.2     1  UNL1        0.3045
      2 O         143.0046  140.3786  156.8585 O.2     1  UNL1       -0.2647
      3 N         143.3288  139.2075  159.1549 N.am    1  UNL1       -0.2720
      4 C         143.2847  137.9682  159.9988 C.3     1  UNL1        0.0976
      5 C         143.6529  138.0364  161.4512 C.3     1  UNL1        0.0651
      6 C         144.0654  139.3438  162.0598 C.3     1  UNL1        0.1693
      7 C         144.1096  140.5831  161.2159 C.3     1  UNL1        0.0651
      8 C         143.7412  140.5149  159.7634 C.3     1  UNL1        0.0976
      9 C         142.6085  135.5554  156.2543 C.ar    1  UNL1        0.2501
     10 N         141.2182  136.0842  156.0604 N.ar    1  UNL1       -0.1068
     11 N         141.1809  137.4911  156.5792 N.ar    1  UNL1       -0.1021
     12 C         142.5480  137.8318  157.0938 C.ar    1  UNL1        0.3042
     13 O         143.4303  136.6355  156.8930 O.2     1  UNL1       -0.4122
     14 C         144.0590  131.4496  155.1192 C.ar    1  UNL1        0.1387
     15 C         143.0516  132.1535  154.2591 C.ar    1  UNL1        0.0371
     16 C         142.5681  133.5221  154.6375 C.ar    1  UNL1        0.0078
     17 C         143.0920  134.1868  155.8759 C.ar    1  UNL1        0.0553
     18 C         144.0993  133.4829  156.7359 C.ar    1  UNL1        0.0078
     19 C         144.5828  132.1143  156.3576 C.ar    1  UNL1        0.0371
     20 C         144.5188  129.6475  153.3050 C.3     1  UNL1        0.2525
     21 O         144.5424  130.0810  154.7408 O.3     1  UNL1       -0.4714
     22 O         144.4337  139.4120  163.5123 O.3     1  UNL1       -0.4791
     23 C         143.3642  139.5830  164.5500 C.ar    1  UNL1        0.1384
     24 C         143.5361  138.9765  165.9111 C.ar    1  UNL1        0.0366
     25 C         142.4666  139.1474  166.9488 C.ar    1  UNL1        0.0002
     26 C         141.2252  139.9249  166.6255 C.ar    1  UNL1       -0.0059
     27 C         141.0533  140.5314  165.2644 C.ar    1  UNL1        0.0002
     28 C         142.1228  140.3605  164.2266 C.ar    1  UNL1        0.0366
     29 C         140.1556  140.0958  167.6633 C.3     1  UNL1        0.0993
     30 N         140.4161  140.9375  168.8772 N.3     1  UNL1       -0.2646
     31 C         140.4132  142.4334  168.7673 C.3     1  UNL1        0.1049
     32 C         140.6737  143.2752  169.9813 C.3     1  UNL1        0.1595
     33 O         140.9370  142.6209  171.3051 O.3     1  UNL1       -0.3508
     34 C         140.9399  141.1249  171.4150 C.3     1  UNL1        0.1595
     35 C         140.6794  140.2832  170.2010 C.3     1  UNL1        0.1049
@<TRIPOS>BOND
     1    20    21    1
     2    21    14    1
     3    14    15   ar
     4    15    16   ar
     5    16    17   ar
     6    17     9    1
     7     9    10   ar
     8    10    11   ar
     9    11    12   ar
    10    12     1    1
    11     1     2    2
    12     1     3   am
    13     3     4    1
    14     4     5    1
    15     5     6    1
    16     6    22    1
    17    22    23    1
    18    23    24   ar
    19    24    25   ar
    20    25    26   ar
    21    26    29    1
    22    29    30    1
    23    30    31    1
    24    31    32    1
    25    32    33    1
    26    33    34    1
    27    34    35    1
    28    26    27   ar
    29    27    28   ar
    30     6     7    1
    31     7     8    1
    32    12    13   ar
    33    17    18   ar
    34    18    19   ar
    35    19    14   ar
    36    13     9   ar
    37     8     3    1
    38    28    23   ar
    39    35    30    1
@<TRIPOS>MOLECULE
*****
 35 39 0 0 0
SMALL
GASTEIGER

@<TRIPOS>ATOM
      1 C         141.9011  139.3663  158.5677 C.2     1  UNL1        0.3045
      2 O         142.9186  140.4217  158.2505 O.2     1  UNL1       -0.2647
      3 N         140.9400  139.5676  159.7016 N.am    1  UNL1       -0.2720
      4 C         139.9225  138.5122  160.0188 C.3     1  UNL1        0.0976
      5 C         138.9615  138.7136  161.1526 C.3     1  UNL1        0.0651
      6 C         139.0179  139.9704  161.9694 C.3     1  UNL1        0.1693
      7 C         140.0354  141.0259  161.6522 C.3     1  UNL1        0.0651
      8 C         140.9965  140.8245  160.5183 C.3     1  UNL1        0.0976
      9 C         142.3647  135.9162  156.8507 C.ar    1  UNL1        0.2501
     10 N         141.1512  136.4343  156.1374 N.ar    1  UNL1       -0.1068
     11 N         140.8297  137.7897  156.6937 N.ar    1  UNL1       -0.1021
     12 C         141.8447  138.1094  157.7509 C.ar    1  UNL1        0.3042
     13 O         142.7933  136.9515  157.8480 O.2     1  UNL1       -0.4122
     14 C         144.3678  131.9523  156.1264 C.ar    1  UNL1        0.1387
     15 C         144.5726  132.6693  157.4278 C.ar    1  UNL1        0.0371
     16 C         143.9049  133.9906  157.6693 C.ar    1  UNL1        0.0078
     17 C         143.0324  134.5949  156.6093 C.ar    1  UNL1        0.0553
     18 C         142.8277  133.8778  155.3078 C.ar    1  UNL1        0.0078
     19 C         143.4954  132.5565  155.0664 C.ar    1  UNL1        0.0371
     20 C         144.2167  129.3753  155.8327 C.3     1  UNL1        0.2525
     21 O         145.0355  130.6310  155.8849 O.3     1  UNL1       -0.4714
     22 O         138.0568  140.1718  163.1033 O.3     1  UNL1       -0.4791
     23 C         138.5535  140.1598  164.5186 C.ar    1  UNL1        0.1384
     24 C         139.5095  141.2165  164.9869 C.ar    1  UNL1        0.0366
     25 C         140.0063  141.2045  166.4022 C.ar    1  UNL1        0.0002
     26 C         139.5470  140.1358  167.3492 C.ar    1  UNL1       -0.0059
     27 C         138.5910  139.0790  166.8809 C.ar    1  UNL1        0.0002
     28 C         138.0942  139.0910  165.4656 C.ar    1  UNL1        0.0366
     29 C         140.0438  140.1238  168.7646 C.3     1  UNL1        0.0993
     30 N         141.0290  141.1580  169.2224 N.3     1  UNL1       -0.2646
     31 C         142.4981  140.8556  169.2011 C.3     1  UNL1        0.1049
     32 C         143.4834  141.8898  169.6590 C.3     1  UNL1        0.1595
     33 O         142.9996  143.2263  170.1382 O.3     1  UNL1       -0.3508
     34 C         141.5306  143.5287  170.1595 C.3     1  UNL1        0.1595
     35 C         140.5452  142.4945  169.7016 C.3     1  UNL1        0.1049
@<TRIPOS>BOND
     1    20    21    1
     2    21    14    1
     3    14    15   ar
     4    15    16   ar
     5    16    17   ar
     6    17     9    1
     7     9    10   ar
     8    10    11   ar
     9    11    12   ar
    10    12     1    1
    11     1     2    2
    12     1     3   am
    13     3     4    1
    14     4     5    1
    15     5     6    1
    16     6    22    1
    17    22    23    1
    18    23    24   ar
    19    24    25   ar
    20    25    26   ar
    21    26    29    1
    22    29    30    1
    23    30    31    1
    24    31    32    1
    25    32    33    1
    26    33    34    1
    27    34    35    1
    28    26    27   ar
    29    27    28   ar
    30     6     7    1
    31     7     8    1
    32    12    13   ar
    33    17    18   ar
    34    18    19   ar
    35    19    14   ar
    36    13     9   ar
    37     8     3    1
    38    28    23   ar
    39    35    30    1
@<TRIPOS>MOLECULE
*****
 35 39 0 0 0
SMALL
GASTEIGER

@<TRIPOS>ATOM
      1 C         139.1504  141.1892  157.7396 C.2     1  UNL1        0.3045
      2 O         139.4692  142.4631  157.0148 O.2     1  UNL1       -0.2647
      3 N         138.6947  141.2329  159.1681 N.am    1  UNL1       -0.2720
      4 C         138.3759  139.9589  159.8929 C.3     1  UNL1        0.0976
      5 C         137.9202  140.0026  161.3213 C.3     1  UNL1        0.0651
      6 C         137.7834  141.3202  162.0249 C.3     1  UNL1        0.1693
      7 C         138.1023  142.5942  161.3001 C.3     1  UNL1        0.0651
      8 C         138.5579  142.5505  159.8716 C.3     1  UNL1        0.0976
      9 C         140.1691  137.7433  156.2721 C.ar    1  UNL1        0.2501
     10 N         138.8264  137.9445  155.6343 N.ar    1  UNL1       -0.1068
     11 N         138.2814  139.2598  156.1064 N.ar    1  UNL1       -0.1021
     12 C         139.2872  139.8716  157.0360 C.ar    1  UNL1        0.3042
     13 O         140.4539  138.9343  157.1383 O.2     1  UNL1       -0.4122
     14 C         142.8689  134.1907  155.6889 C.ar    1  UNL1        0.1387
     15 C         143.2308  135.2522  156.6849 C.ar    1  UNL1        0.0371
     16 C         142.3309  136.4364  156.8793 C.ar    1  UNL1        0.0078
     17 C         141.0690  136.5591  156.0777 C.ar    1  UNL1        0.0553
     18 C         140.7071  135.4976  155.0817 C.ar    1  UNL1        0.0078
     19 C         141.6070  134.3134  154.8873 C.ar    1  UNL1        0.0371
     20 C         143.3547  131.8919  154.5801 C.3     1  UNL1        0.2525
     21 O         143.7688  133.0065  155.4945 O.3     1  UNL1       -0.4714
     22 O         137.3278  141.3639  163.4534 O.3     1  UNL1       -0.4791
     23 C         138.2867  141.0288  164.5571 C.ar    1  UNL1        0.1384
     24 C         138.0998  139.7742  165.3577 C.ar    1  UNL1        0.0366
     25 C         139.0587  139.4390  166.4614 C.ar    1  UNL1        0.0002
     26 C         140.2045  140.3585  166.7644 C.ar    1  UNL1       -0.0059
     27 C         140.3914  141.6131  165.9638 C.ar    1  UNL1        0.0002
     28 C         139.4325  141.9482  164.8601 C.ar    1  UNL1        0.0366
     29 C         141.1634  140.0233  167.8682 C.3     1  UNL1        0.0993
     30 N         141.0626  140.7271  169.1889 N.3     1  UNL1       -0.2646
     31 C         142.0474  140.4220  170.2784 C.3     1  UNL1        0.1049
     32 C         141.9466  141.1258  171.5992 C.3     1  UNL1        0.1595
     33 O         140.8610  142.1347  171.8305 O.3     1  UNL1       -0.3508
     34 C         139.8761  142.4397  170.7410 C.3     1  UNL1        0.1595
     35 C         139.9769  141.7359  169.4202 C.3     1  UNL1        0.1049
@<TRIPOS>BOND
     1    20    21    1
     2    21    14    1
     3    14    15   ar
     4    15    16   ar
     5    16    17   ar
     6    17     9    1
     7     9    10   ar
     8    10    11   ar
     9    11    12   ar
    10    12     1    1
    11     1     2    2
    12     1     3   am
    13     3     4    1
    14     4     5    1
    15     5     6    1
    16     6    22    1
    17    22    23    1
    18    23    24   ar
    19    24    25   ar
    20    25    26   ar
    21    26    29    1
    22    29    30    1
    23    30    31    1
    24    31    32    1
    25    32    33    1
    26    33    34    1
    27    34    35    1
    28    26    27   ar
    29    27    28   ar
    30     6     7    1
    31     7     8    1
    32    12    13   ar
    33    17    18   ar
    34    18    19   ar
    35    19    14   ar
    36    13     9   ar
    37     8     3    1
    38    28    23   ar
    39    35    30    1
@<TRIPOS>MOLECULE
*****
 35 39 0 0 0
SMALL
GASTEIGER

@<TRIPOS>ATOM
      1 C         138.7218  138.9935  161.2825 C.2     1  UNL1        0.3045
      2 O         137.3843  139.3975  160.7370 O.2     1  UNL1       -0.2647
      3 N         139.8392  138.6426  160.3453 N.am    1  UNL1       -0.2720
      4 C         141.1768  138.2386  160.8909 C.3     1  UNL1        0.0976
      5 C         142.2941  137.8877  159.9537 C.3     1  UNL1        0.0651
      6 C         142.0739  137.9408  158.4709 C.3     1  UNL1        0.1693
      7 C         140.7363  138.3448  157.9254 C.3     1  UNL1        0.0651
      8 C         139.6189  138.6957  158.8626 C.3     1  UNL1        0.0976
      9 C         139.4284  139.5942  165.0516 C.ar    1  UNL1        0.2501
     10 N         139.1334  138.1235  165.0427 N.ar    1  UNL1       -0.1068
     11 N         138.8329  137.7194  163.6298 N.ar    1  UNL1       -0.1021
     12 C         138.9420  138.9404  162.7653 C.ar    1  UNL1        0.3042
     13 O         139.3101  140.0991  163.6441 O.2     1  UNL1       -0.4122
     14 C         140.4830  142.0588  168.6659 C.ar    1  UNL1        0.1387
     15 C         139.8559  140.7069  168.8369 C.ar    1  UNL1        0.0371
     16 C         139.5044  139.8854  167.6321 C.ar    1  UNL1        0.0078
     17 C         139.7799  140.4157  166.2563 C.ar    1  UNL1        0.0553
     18 C         140.4070  141.7676  166.0854 C.ar    1  UNL1        0.0078
     19 C         140.7585  142.5891  167.2901 C.ar    1  UNL1        0.0371
     20 C         142.2688  143.0316  170.2828 C.3     1  UNL1        0.2525
     21 O         140.8345  142.8803  169.8707 O.3     1  UNL1       -0.4714
     22 O         143.1912  137.5899  157.5337 O.3     1  UNL1       -0.4791
     23 C         143.1170  136.3356  156.7144 C.ar    1  UNL1        0.1384
     24 C         142.9957  136.4208  155.2218 C.ar    1  UNL1        0.0366
     25 C         142.9214  135.1665  154.4026 C.ar    1  UNL1        0.0002
     26 C         142.9685  133.8269  155.0760 C.ar    1  UNL1       -0.0059
     27 C         143.0898  133.7417  156.5686 C.ar    1  UNL1        0.0002
     28 C         143.1640  134.9960  157.3879 C.ar    1  UNL1        0.0366
     29 C         142.8942  132.5726  154.2567 C.3     1  UNL1        0.0993
     30 N         143.1236  131.2391  154.9041 N.3     1  UNL1       -0.2646
     31 C         144.5218  130.7620  155.1635 C.3     1  UNL1        0.1049
     32 C         144.7512  129.4285  155.8110 C.3     1  UNL1        0.1595
     33 O         143.5824  128.5722  156.1990 O.3     1  UNL1       -0.3508
     34 C         142.1842  129.0494  155.9396 C.3     1  UNL1        0.1595
     35 C         141.9548  130.3829  155.2922 C.3     1  UNL1        0.1049
@<TRIPOS>BOND
     1    20    21    1
     2    21    14    1
     3    14    15   ar
     4    15    16   ar
     5    16    17   ar
     6    17     9    1
     7     9    10   ar
     8    10    11   ar
     9    11    12   ar
    10    12     1    1
    11     1     2    2
    12     1     3   am
    13     3     4    1
    14     4     5    1
    15     5     6    1
    16     6    22    1
    17    22    23    1
    18    23    24   ar
    19    24    25   ar
    20    25    26   ar
    21    26    29    1
    22    29    30    1
    23    30    31    1
    24    31    32    1
    25    32    33    1
    26    33    34    1
    27    34    35    1
    28    26    27   ar
    29    27    28   ar
    30     6     7    1
    31     7     8    1
    32    12    13   ar
    33    17    18   ar
    34    18    19   ar
    35    19    14   ar
    36    13     9   ar
    37     8     3    1
    38    28    23   ar
    39    35    30    1
@<TRIPOS>MOLECULE
*****
 35 39 0 0 0
SMALL
GASTEIGER

@<TRIPOS>ATOM
      1 C         139.5939  139.3166  157.6281 C.2     1  UNL1        0.3045
      2 O         138.8439  140.1459  156.6283 O.2     1  UNL1       -0.2647
      3 N         139.2059  139.3554  159.0765 N.am    1  UNL1       -0.2720
      4 C         139.9560  138.5261  160.0764 C.3     1  UNL1        0.0976
      5 C         139.5680  138.5649  161.5247 C.3     1  UNL1        0.0651
      6 C         138.4300  139.4330  161.9733 C.3     1  UNL1        0.1693
      7 C         137.6799  140.2623  160.9735 C.3     1  UNL1        0.0651
      8 C         138.0679  140.2235  159.5251 C.3     1  UNL1        0.0976
      9 C         142.0239  136.5200  156.4706 C.ar    1  UNL1        0.2501
     10 N         142.9425  137.7052  156.5076 N.ar    1  UNL1       -0.1068
     11 N         142.1441  138.8971  156.9457 N.ar    1  UNL1       -0.1021
     12 C         140.7320  138.4485  157.1795 C.ar    1  UNL1        0.3042
     13 O         140.6577  136.9794  156.8858 O.2     1  UNL1       -0.4122
     14 C         143.1660  132.3231  155.3165 C.ar    1  UNL1        0.1387
     15 C         142.1078  133.0521  154.5428 C.ar    1  UNL1        0.0371
     16 C         141.7271  134.4511  154.9275 C.ar    1  UNL1        0.0078
     17 C         142.4046  135.1211  156.0859 C.ar    1  UNL1        0.0553
     18 C         143.4628  134.3921  156.8597 C.ar    1  UNL1        0.0078
     19 C         143.8435  132.9931  156.4750 C.ar    1  UNL1        0.0371
     20 C         144.8558  130.3509  155.3876 C.3     1  UNL1        0.2525
     21 O         143.5467  130.9242  154.9318 O.3     1  UNL1       -0.4714
     22 O         138.0420  139.4718  163.4218 O.3     1  UNL1       -0.4791
     23 C         138.9575  140.1057  164.4268 C.ar    1  UNL1        0.1384
     24 C         139.0256  139.5660  165.8246 C.ar    1  UNL1        0.0366
     25 C         139.9411  140.1999  166.8296 C.ar    1  UNL1        0.0002
     26 C         140.7885  141.3736  166.4367 C.ar    1  UNL1       -0.0059
     27 C         140.7204  141.9133  165.0388 C.ar    1  UNL1        0.0002
     28 C         139.8049  141.2794  164.0339 C.ar    1  UNL1        0.0366
     29 C         141.7040  142.0075  167.4417 C.3     1  UNL1        0.0993
     30 N         141.3214  142.0361  168.8917 N.3     1  UNL1       -0.2646
     31 C         142.0592  141.1811  169.8790 C.3     1  UNL1        0.1049
     32 C         141.6766  141.2095  171.3291 C.3     1  UNL1        0.1595
     33 O         140.5562  142.0930  171.7919 O.3     1  UNL1       -0.3508
     34 C         139.8185  142.9480  170.8047 C.3     1  UNL1        0.1595
     35 C         140.2010  142.9195  169.3546 C.3     1  UNL1        0.1049
@<TRIPOS>BOND
     1    20    21    1
     2    21    14    1
     3    14    15   ar
     4    15    16   ar
     5    16    17   ar
     6    17     9    1
     7     9    10   ar
     8    10    11   ar
     9    11    12   ar
    10    12     1    1
    11     1     2    2
    12     1     3   am
    13     3     4    1
    14     4     5    1
    15     5     6    1
    16     6    22    1
    17    22    23    1
    18    23    24   ar
    19    24    25   ar
    20    25    26   ar
    21    26    29    1
    22    29    30    1
    23    30    31    1
    24    31    32    1
    25    32    33    1
    26    33    34    1
    27    34    35    1
    28    26    27   ar
    29    27    28   ar
    30     6     7    1
    31     7     8    1
    32    12    13   ar
    33    17    18   ar
    34    18    19   ar
    35    19    14   ar
    36    13     9   ar
    37     8     3    1
    38    28    23   ar
    39    35    30    1
@<TRIPOS>MOLECULE
*****
 35 39 0 0 0
SMALL
GASTEIGER

@<TRIPOS>ATOM
      1 C         139.4962  140.8639  157.9724 C.2     1  UNL1        0.3045
      2 O         140.4373  141.9557  157.5576 O.2     1  UNL1       -0.2647
      3 N         139.7621  140.0794  159.2230 N.am    1  UNL1       -0.2720
      4 C         138.8209  138.9875  159.6378 C.3     1  UNL1        0.0976
      5 C         139.0868  138.2031  160.8882 C.3     1  UNL1        0.0651
      6 C         140.2939  138.5104  161.7240 C.3     1  UNL1        0.1693
      7 C         141.2350  139.6023  161.3092 C.3     1  UNL1        0.0651
      8 C         140.9691  140.3868  160.0587 C.3     1  UNL1        0.0976
      9 C         135.9878  140.3485  156.3941 C.ar    1  UNL1        0.2501
     10 N         136.8753  139.8187  155.3071 N.ar    1  UNL1       -0.1068
     11 N         138.2976  139.9472  155.7660 N.ar    1  UNL1       -0.1021
     12 C         138.2891  140.5565  157.1367 C.ar    1  UNL1        0.3042
     13 O         136.8616  140.8045  157.5248 O.2     1  UNL1       -0.4122
     14 C         131.4931  140.5368  156.2824 C.ar    1  UNL1        0.1387
     15 C         132.1825  139.6694  157.2934 C.ar    1  UNL1        0.0371
     16 C         133.6808  139.6066  157.3306 C.ar    1  UNL1        0.0078
     17 C         134.4896  140.4113  156.3568 C.ar    1  UNL1        0.0553
     18 C         133.8001  141.2787  155.3458 C.ar    1  UNL1        0.0078
     19 C         132.3019  141.3415  155.3086 C.ar    1  UNL1        0.0371
     20 C         129.3085  141.6577  155.4333 C.3     1  UNL1        0.2525
     21 O         129.9949  140.5996  156.2452 O.3     1  UNL1       -0.4714
     22 O         140.5598  137.7259  162.9746 O.3     1  UNL1       -0.4791
     23 C         140.2260  138.3135  164.3137 C.ar    1  UNL1        0.1384
     24 C         141.2733  139.0571  165.0885 C.ar    1  UNL1        0.0366
     25 C         140.9395  139.6447  166.4277 C.ar    1  UNL1        0.0002
     26 C         139.5586  139.4886  166.9921 C.ar    1  UNL1       -0.0059
     27 C         138.5113  138.7450  166.2173 C.ar    1  UNL1        0.0002
     28 C         138.8450  138.1574  164.8781 C.ar    1  UNL1        0.0366
     29 C         139.2248  140.0762  168.3313 C.3     1  UNL1        0.0993
     30 N         140.2792  140.7968  169.1180 N.3     1  UNL1       -0.2646
     31 C         141.2018  140.0274  170.0162 C.3     1  UNL1        0.1049
     32 C         142.2562  140.7480  170.8029 C.3     1  UNL1        0.1595
     33 O         142.3880  142.2380  170.6914 O.3     1  UNL1       -0.3508
     34 C         141.4654  143.0074  169.7932 C.3     1  UNL1        0.1595
     35 C         140.4110  142.2868  169.0064 C.3     1  UNL1        0.1049
@<TRIPOS>BOND
     1    20    21    1
     2    21    14    1
     3    14    15   ar
     4    15    16   ar
     5    16    17   ar
     6    17     9    1
     7     9    10   ar
     8    10    11   ar
     9    11    12   ar
    10    12     1    1
    11     1     2    2
    12     1     3   am
    13     3     4    1
    14     4     5    1
    15     5     6    1
    16     6    22    1
    17    22    23    1
    18    23    24   ar
    19    24    25   ar
    20    25    26   ar
    21    26    29    1
    22    29    30    1
    23    30    31    1
    24    31    32    1
    25    32    33    1
    26    33    34    1
    27    34    35    1
    28    26    27   ar
    29    27    28   ar
    30     6     7    1
    31     7     8    1
    32    12    13   ar
    33    17    18   ar
    34    18    19   ar
    35    19    14   ar
    36    13     9   ar
    37     8     3    1
    38    28    23   ar
    39    35    30    1
@<TRIPOS>MOLECULE
*****
 35 39 0 0 0
SMALL
GASTEIGER

@<TRIPOS>ATOM
      1 C         139.4894  143.5072  157.7574 C.2     1  UNL1        0.3045
      2 O         138.9073  142.1725  157.3976 O.2     1  UNL1       -0.2647
      3 N         139.6524  143.8905  159.1984 N.am    1  UNL1       -0.2720
      4 C         140.2345  145.2253  159.5582 C.3     1  UNL1        0.0976
      5 C         140.3975  145.6086  160.9992 C.3     1  UNL1        0.0651
      6 C         139.9784  144.6571  162.0804 C.3     1  UNL1        0.1693
      7 C         139.3963  143.3224  161.7206 C.3     1  UNL1        0.0651
      8 C         139.2333  142.9391  160.2796 C.3     1  UNL1        0.0976
      9 C         140.0916  146.4437  155.2916 C.ar    1  UNL1        0.2501
     10 N         141.0154  145.4021  154.7332 N.ar    1  UNL1       -0.1068
     11 N         140.9022  144.1754  155.5889 N.ar    1  UNL1       -0.1021
     12 C         139.9085  144.4587  156.6762 C.ar    1  UNL1        0.3042
     13 O         139.4075  145.8606  156.4925 O.2     1  UNL1       -0.4122
     14 C         139.4798  150.5895  153.6522 C.ar    1  UNL1        0.1387
     15 C         138.8702  150.2057  154.9679 C.ar    1  UNL1        0.0371
     16 C         139.0741  148.8238  155.5143 C.ar    1  UNL1        0.0078
     17 C         139.8877  147.8256  154.7451 C.ar    1  UNL1        0.0553
     18 C         140.4973  148.2094  153.4295 C.ar    1  UNL1        0.0078
     19 C         140.2934  149.5914  152.8830 C.ar    1  UNL1        0.0371
     20 C         138.3419  152.9207  153.7961 C.3     1  UNL1        0.2525
     21 O         139.2759  151.9715  153.1058 O.3     1  UNL1       -0.4714
     22 O         140.1414  145.0404  163.5214 O.3     1  UNL1       -0.4791
     23 C         140.6684  144.0413  164.5083 C.ar    1  UNL1        0.1384
     24 C         139.7743  143.5125  165.5903 C.ar    1  UNL1        0.0366
     25 C         140.3013  142.5134  166.5772 C.ar    1  UNL1        0.0002
     26 C         141.7225  142.0430  166.4820 C.ar    1  UNL1       -0.0059
     27 C         142.6167  142.5718  165.3999 C.ar    1  UNL1        0.0002
     28 C         142.0896  143.5709  164.4131 C.ar    1  UNL1        0.0366
     29 C         142.2496  141.0438  167.4689 C.3     1  UNL1        0.0993
     30 N         141.7450  141.0468  168.8814 N.3     1  UNL1       -0.2646
     31 C         140.7492  140.0161  169.3243 C.3     1  UNL1        0.1049
     32 C         140.2446  140.0191  170.7368 C.3     1  UNL1        0.1595
     33 O         140.7357  141.0527  171.7065 O.3     1  UNL1       -0.3508
     34 C         141.7315  142.0834  171.2637 C.3     1  UNL1        0.1595
     35 C         142.2362  142.0804  169.8511 C.3     1  UNL1        0.1049
@<TRIPOS>BOND
     1    20    21    1
     2    21    14    1
     3    14    15   ar
     4    15    16   ar
     5    16    17   ar
     6    17     9    1
     7     9    10   ar
     8    10    11   ar
     9    11    12   ar
    10    12     1    1
    11     1     2    2
    12     1     3   am
    13     3     4    1
    14     4     5    1
    15     5     6    1
    16     6    22    1
    17    22    23    1
    18    23    24   ar
    19    24    25   ar
    20    25    26   ar
    21    26    29    1
    22    29    30    1
    23    30    31    1
    24    31    32    1
    25    32    33    1
    26    33    34    1
    27    34    35    1
    28    26    27   ar
    29    27    28   ar
    30     6     7    1
    31     7     8    1
    32    12    13   ar
    33    17    18   ar
    34    18    19   ar
    35    19    14   ar
    36    13     9   ar
    37     8     3    1
    38    28    23   ar
    39    35    30    1
@<TRIPOS>MOLECULE
*****
 35 39 0 0 0
SMALL
GASTEIGER

@<TRIPOS>ATOM
      1 C         138.7739  139.8376  159.9153 C.2     1  UNL1        0.3045
      2 O         137.4264  139.8759  159.2573 O.2     1  UNL1       -0.2647
      3 N         139.9282  139.1759  159.2227 N.am    1  UNL1       -0.2720
      4 C         141.2756  139.1376  159.8806 C.3     1  UNL1        0.0976
      5 C         142.4298  138.4758  159.1881 C.3     1  UNL1        0.0651
      6 C         142.2367  137.8523  157.8376 C.3     1  UNL1        0.1693
      7 C         140.8893  137.8906  157.1796 C.3     1  UNL1        0.0651
      8 C         139.7350  138.5524  157.8722 C.3     1  UNL1        0.0976
      9 C         139.1540  140.7531  163.6680 C.ar    1  UNL1        0.2501
     10 N         139.3743  142.0879  163.0203 N.ar    1  UNL1       -0.1068
     11 N         139.2588  141.9075  161.5357 N.ar    1  UNL1       -0.1021
     12 C         138.9670  140.4611  161.2658 C.ar    1  UNL1        0.3042
     13 O         138.9023  139.7476  162.5837 O.2     1  UNL1       -0.4122
     14 C         139.2343  139.9123  168.0881 C.ar    1  UNL1        0.1387
     15 C         140.1187  140.9776  167.5111 C.ar    1  UNL1        0.0371
     16 C         140.0919  141.2578  166.0377 C.ar    1  UNL1        0.0078
     17 C         139.1808  140.4728  165.1414 C.ar    1  UNL1        0.0553
     18 C         138.2964  139.4075  165.7184 C.ar    1  UNL1        0.0078
     19 C         138.3231  139.1273  167.1917 C.ar    1  UNL1        0.0371
     20 C         140.2962  140.2831  170.4300 C.3     1  UNL1        0.2525
     21 O         139.2610  139.6321  169.5614 O.3     1  UNL1       -0.4714
     22 O         143.3910  137.1906  157.1450 O.3     1  UNL1       -0.4791
     23 C         143.1859  135.8959  156.4158 C.ar    1  UNL1        0.1384
     24 C         142.9187  135.9006  154.9398 C.ar    1  UNL1        0.0366
     25 C         142.7136  134.6059  154.2107 C.ar    1  UNL1        0.0002
     26 C         142.7756  133.3065  154.9575 C.ar    1  UNL1       -0.0059
     27 C         143.0428  133.3018  156.4335 C.ar    1  UNL1        0.0002
     28 C         143.2479  134.5965  157.1627 C.ar    1  UNL1        0.0366
     29 C         142.5705  132.0118  154.2283 C.3     1  UNL1        0.0993
     30 N         143.0249  130.7228  154.8462 N.3     1  UNL1       -0.2646
     31 C         144.4737  130.3371  154.7965 C.3     1  UNL1        0.1049
     32 C         144.9282  129.0481  155.4143 C.3     1  UNL1        0.1595
     33 O         143.9341  128.1447  156.0819 O.3     1  UNL1       -0.3508
     34 C         142.4854  128.5304  156.1315 C.3     1  UNL1        0.1595
     35 C         142.0308  129.8195  155.5137 C.3     1  UNL1        0.1049
@<TRIPOS>BOND
     1    20    21    1
     2    21    14    1
     3    14    15   ar
     4    15    16   ar
     5    16    17   ar
     6    17     9    1
     7     9    10   ar
     8    10    11   ar
     9    11    12   ar
    10    12     1    1
    11     1     2    2
    12     1     3   am
    13     3     4    1
    14     4     5    1
    15     5     6    1
    16     6    22    1
    17    22    23    1
    18    23    24   ar
    19    24    25   ar
    20    25    26   ar
    21    26    29    1
    22    29    30    1
    23    30    31    1
    24    31    32    1
    25    32    33    1
    26    33    34    1
    27    34    35    1
    28    26    27   ar
    29    27    28   ar
    30     6     7    1
    31     7     8    1
    32    12    13   ar
    33    17    18   ar
    34    18    19   ar
    35    19    14   ar
    36    13     9   ar
    37     8     3    1
    38    28    23   ar
    39    35    30    1
