@<TRIPOS>MOLECULE
*****
 36 39 0 0 0
SMALL
GASTEIGER

@<TRIPOS>ATOM
      1 C         141.1084  142.6160  164.8077 C.ar    1  UNL1        0.1682
      2 N         140.9571  142.8011  166.2885 N.ar    1  UNL1       -0.2117
      3 C         141.4763  141.7567  167.2318 C.ar    1  UNL1        0.1364
      4 C         142.1468  140.5274  166.6943 C.ar    1  UNL1        0.0673
      5 C         142.7534  139.3361  167.3747 C.ar    1  UNL1        0.0245
      6 C         143.2796  138.4148  166.3143 C.ar    1  UNL1        0.0772
      7 N         142.9982  139.0366  164.9786 N.ar    1  UNL1       -0.3114
      8 C         142.2981  140.3423  165.2134 C.ar    1  UNL1        0.1482
      9 N         141.7789  141.3866  164.2702 N.ar    1  UNL1       -0.2093
     10 N         139.0313  146.7931  161.0344 N.pl3   1  UNL1       -0.3274
     11 C         139.5505  145.7488  161.9777 C.ar    1  UNL1        0.2137
     12 N         138.6840  144.5855  162.3596 N.ar    1  UNL1       -0.2123
     13 C         139.2033  143.5413  163.3029 C.ar    1  UNL1        0.1064
     14 C         140.5891  143.6603  163.8644 C.ar    1  UNL1        0.0743
     15 C         141.4556  144.8235  163.4825 C.ar    1  UNL1        0.1064
     16 N         140.9364  145.8679  162.5391 N.ar    1  UNL1       -0.2123
     17 H         138.1217  146.7149  160.6659 H       1  UNL1        0.1452
     18 H         139.6000  147.5566  160.7837 H       1  UNL1        0.1452
     19 N         141.3250  141.9419  168.7127 N.pl3   1  UNL1       -0.2880
     20 C         142.3728  141.4113  169.6457 C.3     1  UNL1        0.1242
     21 C         142.2215  141.5964  171.1266 C.3     1  UNL1        0.1636
     22 O         141.0224  142.3120  171.6743 O.3     1  UNL1       -0.3501
     23 C         139.9746  142.8426  170.7412 C.3     1  UNL1        0.1636
     24 C         140.1259  142.6575  169.2604 C.3     1  UNL1        0.1242
     25 C         143.3544  138.4549  163.6427 C.3     1  UNL1        0.1075
     26 C         142.2707  138.0531  162.6866 C.3     1  UNL1        0.0245
     27 C         141.1270  137.2070  163.1619 C.3     1  UNL1        0.0020
     28 C         139.8565  137.8554  163.6260 C.3     1  UNL1        0.0006
     29 C         139.5632  137.9660  165.0929 C.3     1  UNL1        0.0096
     30 C         138.2702  138.5693  165.5558 C.3     1  UNL1        0.0871
     31 C         137.9472  138.6184  167.0198 C.2     1  UNL1        0.2443
     32 O         136.8252  137.7878  167.5685 O.2     1  UNL1       -0.2730
     33 N         138.7462  139.4981  167.9350 N.am    1  UNL1       -0.1970
     34 O         138.4231  139.5472  169.3990 O.3     1  UNL1       -0.2952
     35 H         139.4826  140.0432  167.5748 H       1  UNL1        0.1822
     36 H         137.6773  138.9557  169.5855 H       1  UNL1        0.2414
@<TRIPOS>BOND
     1    10    11    1
     2    11    12   ar
     3    12    13   ar
     4    13    14   ar
     5    14     1    1
     6     1     2   ar
     7     2     3   ar
     8     3    19    1
     9    19    20    1
    10    20    21    1
    11    21    22    1
    12    22    23    1
    13    23    24    1
    14     3     4   ar
    15     4     5   ar
    16     5     6   ar
    17     6     7   ar
    18     7    25    1
    19    25    26    1
    20    26    27    1
    21    27    28    1
    22    28    29    1
    23    29    30    1
    24    30    31    1
    25    31    32    2
    26    31    33   am
    27    33    34    1
    28     7     8   ar
    29     8     9   ar
    30    14    15   ar
    31    15    16   ar
    32    16    11   ar
    33     9     1   ar
    34    24    19    1
    35     8     4   ar
    36    10    17    1
    37    10    18    1
    38    33    35    1
    39    34    36    1
@<TRIPOS>MOLECULE
*****
 36 39 0 0 0
SMALL
GASTEIGER

@<TRIPOS>ATOM
      1 C         140.9467  142.4452  164.5490 C.ar    1  UNL1        0.1682
      2 N         140.5688  142.4089  166.0001 N.ar    1  UNL1       -0.2117
      3 C         141.0666  141.2985  166.8773 C.ar    1  UNL1        0.1364
      4 C         141.9421  140.2244  166.3032 C.ar    1  UNL1        0.0673
      5 C         142.5795  139.0137  166.9180 C.ar    1  UNL1        0.0245
      6 C         143.3512  138.3017  165.8468 C.ar    1  UNL1        0.0772
      7 N         143.1908  139.0724  164.5699 N.ar    1  UNL1       -0.3114
      8 C         142.3200  140.2607  164.8520 C.ar    1  UNL1        0.1482
      9 N         141.8222  141.3711  163.9749 N.ar    1  UNL1       -0.2093
     10 N         138.9560  146.8868  161.0405 N.pl3   1  UNL1       -0.3274
     11 C         139.4536  145.7764  161.9176 C.ar    1  UNL1        0.2137
     12 N         140.8410  145.8332  162.4851 N.ar    1  UNL1       -0.2123
     13 C         141.3387  144.7228  163.3622 C.ar    1  UNL1        0.1064
     14 C         140.4489  143.5556  163.6719 C.ar    1  UNL1        0.0743
     15 C         139.0616  143.4987  163.1045 C.ar    1  UNL1        0.1064
     16 N         138.5639  144.6091  162.2273 N.ar    1  UNL1       -0.2123
     17 H         139.5399  147.6529  160.8373 H       1  UNL1        0.1452
     18 H         138.0454  146.8495  160.6681 H       1  UNL1        0.1452
     19 N         140.6887  141.2623  168.3285 N.pl3   1  UNL1       -0.2880
     20 C         139.6414  140.3009  168.8070 C.3     1  UNL1        0.1242
     21 C         139.2635  140.2646  170.2581 C.3     1  UNL1        0.1636
     22 O         139.9328  141.1898  171.2307 O.3     1  UNL1       -0.3501
     23 C         140.9801  142.1512  170.7523 C.3     1  UNL1        0.1636
     24 C         141.3580  142.1875  169.3011 C.3     1  UNL1        0.1242
     25 C         143.7952  138.7171  163.2439 C.3     1  UNL1        0.1075
     26 C         142.9248  138.1988  162.1376 C.3     1  UNL1        0.0245
     27 C         141.6575  137.4649  162.4618 C.3     1  UNL1        0.0020
     28 C         140.3333  138.1547  162.3173 C.3     1  UNL1        0.0006
     29 C         139.2061  137.8168  163.2473 C.3     1  UNL1        0.0096
     30 C         139.4540  137.7239  164.7238 C.3     1  UNL1        0.0871
     31 C         138.4643  138.3066  165.6886 C.2     1  UNL1        0.2443
     32 O         138.0757  139.7515  165.5833 O.2     1  UNL1       -0.2730
     33 N         137.8631  137.4443  166.7586 N.am    1  UNL1       -0.1970
     34 O         136.8734  138.0270  167.7234 O.3     1  UNL1       -0.2952
     35 H         138.1182  136.4960  166.8277 H       1  UNL1        0.1822
     36 H         136.7349  138.9648  167.5177 H       1  UNL1        0.2414
@<TRIPOS>BOND
     1    10    11    1
     2    11    12   ar
     3    12    13   ar
     4    13    14   ar
     5    14     1    1
     6     1     2   ar
     7     2     3   ar
     8     3    19    1
     9    19    20    1
    10    20    21    1
    11    21    22    1
    12    22    23    1
    13    23    24    1
    14     3     4   ar
    15     4     5   ar
    16     5     6   ar
    17     6     7   ar
    18     7    25    1
    19    25    26    1
    20    26    27    1
    21    27    28    1
    22    28    29    1
    23    29    30    1
    24    30    31    1
    25    31    32    2
    26    31    33   am
    27    33    34    1
    28     7     8   ar
    29     8     9   ar
    30    14    15   ar
    31    15    16   ar
    32    16    11   ar
    33     9     1   ar
    34    24    19    1
    35     8     4   ar
    36    10    17    1
    37    10    18    1
    38    33    35    1
    39    34    36    1
@<TRIPOS>MOLECULE
*****
 36 39 0 0 0
SMALL
GASTEIGER

@<TRIPOS>ATOM
      1 C         141.6969  142.0854  165.3920 C.ar    1  UNL1        0.1682
      2 N         141.2809  143.2094  164.4902 N.ar    1  UNL1       -0.2117
      3 C         141.0297  142.9493  163.0344 C.ar    1  UNL1        0.1364
      4 C         141.1948  141.5651  162.4805 C.ar    1  UNL1        0.0673
      5 C         141.0189  141.0096  161.0983 C.ar    1  UNL1        0.0245
      6 C         141.3263  139.5422  161.1460 C.ar    1  UNL1        0.0772
      7 N         141.6922  139.1908  162.5576 N.ar    1  UNL1       -0.3114
      8 C         141.6109  140.4411  163.3824 C.ar    1  UNL1        0.1482
      9 N         141.8620  140.7012  164.8382 N.ar    1  UNL1       -0.2093
     10 N         142.7015  143.1258  171.2152 N.pl3   1  UNL1       -0.3274
     11 C         142.4504  142.8657  169.7594 C.ar    1  UNL1        0.2137
     12 N         143.5985  142.5638  168.8425 N.ar    1  UNL1       -0.2123
     13 C         143.3473  142.3037  167.3867 C.ar    1  UNL1        0.1064
     14 C         141.9480  142.3455  166.8479 C.ar    1  UNL1        0.0743
     15 C         140.8000  142.6474  167.7647 C.ar    1  UNL1        0.1064
     16 N         141.0511  142.9075  169.2206 N.ar    1  UNL1       -0.2123
     17 H         143.6199  143.0983  171.5688 H       1  UNL1        0.1452
     18 H         141.9480  143.3239  171.8170 H       1  UNL1        0.1452
     19 N         140.6136  144.0734  162.1325 N.pl3   1  UNL1       -0.2880
     20 C         141.0925  144.1114  160.7115 C.3     1  UNL1        0.1242
     21 C         140.6765  145.2354  159.8096 C.3     1  UNL1        0.1636
     22 O         139.7815  146.3214  160.3288 O.3     1  UNL1       -0.3501
     23 C         139.3026  146.2835  161.7498 C.3     1  UNL1        0.1636
     24 C         139.7187  145.1594  162.6517 C.3     1  UNL1        0.1242
     25 C         142.0726  137.8284  163.0568 C.3     1  UNL1        0.1075
     26 C         141.0339  136.9380  163.6719 C.3     1  UNL1        0.0245
     27 C         140.2272  137.4226  164.8399 C.3     1  UNL1        0.0020
     28 C         138.8701  138.0216  164.6174 C.3     1  UNL1        0.0006
     29 C         138.4780  139.2786  165.3358 C.3     1  UNL1        0.0096
     30 C         139.1055  139.6148  166.6561 C.3     1  UNL1        0.0871
     31 C         138.3868  139.2912  167.9322 C.2     1  UNL1        0.2443
     32 O         137.2423  138.3217  167.9232 O.2     1  UNL1       -0.2730
     33 N         138.8126  139.9370  169.2173 N.am    1  UNL1       -0.1970
     34 O         138.0938  139.6133  170.4935 O.3     1  UNL1       -0.2952
     35 H         139.5638  140.5733  169.2232 H       1  UNL1        0.1822
     36 H         137.3861  138.9750  170.3131 H       1  UNL1        0.2414
@<TRIPOS>BOND
     1    10    11    1
     2    11    12   ar
     3    12    13   ar
     4    13    14   ar
     5    14     1    1
     6     1     2   ar
     7     2     3   ar
     8     3    19    1
     9    19    20    1
    10    20    21    1
    11    21    22    1
    12    22    23    1
    13    23    24    1
    14     3     4   ar
    15     4     5   ar
    16     5     6   ar
    17     6     7   ar
    18     7    25    1
    19    25    26    1
    20    26    27    1
    21    27    28    1
    22    28    29    1
    23    29    30    1
    24    30    31    1
    25    31    32    2
    26    31    33   am
    27    33    34    1
    28     7     8   ar
    29     8     9   ar
    30    14    15   ar
    31    15    16   ar
    32    16    11   ar
    33     9     1   ar
    34    24    19    1
    35     8     4   ar
    36    10    17    1
    37    10    18    1
    38    33    35    1
    39    34    36    1
@<TRIPOS>MOLECULE
*****
 36 39 0 0 0
SMALL
GASTEIGER

@<TRIPOS>ATOM
      1 C         141.1002  142.4533  164.5420 C.ar    1  UNL1        0.1682
      2 N         140.6335  142.3320  165.9623 N.ar    1  UNL1       -0.2117
      3 C         141.1631  141.2324  166.8345 C.ar    1  UNL1        0.1364
      4 C         142.1593  140.2543  166.2862 C.ar    1  UNL1        0.0673
      5 C         142.8529  139.0759  166.9030 C.ar    1  UNL1        0.0245
      6 C         143.7483  138.4690  165.8638 C.ar    1  UNL1        0.0772
      7 N         143.6080  139.2722  164.6048 N.ar    1  UNL1       -0.3114
      8 C         142.6260  140.3756  164.8659 C.ar    1  UNL1        0.1482
      9 N         142.0964  141.4751  163.9938 N.ar    1  UNL1       -0.2093
     10 N         138.9818  146.8513  161.0534 N.pl3   1  UNL1       -0.3274
     11 C         139.5114  145.7518  161.9256 C.ar    1  UNL1        0.2137
     12 N         138.5705  144.7443  162.5167 N.ar    1  UNL1       -0.2123
     13 C         139.1001  143.6448  163.3889 C.ar    1  UNL1        0.1064
     14 C         140.5706  143.5529  163.6698 C.ar    1  UNL1        0.0743
     15 C         141.5116  144.5603  163.0787 C.ar    1  UNL1        0.1064
     16 N         140.9820  145.6599  162.2065 N.ar    1  UNL1       -0.2123
     17 H         138.0167  146.9117  160.8690 H       1  UNL1        0.1452
     18 H         139.5994  147.5126  160.6654 H       1  UNL1        0.1452
     19 N         140.6963  141.1111  168.2549 N.pl3   1  UNL1       -0.2880
     20 C         141.4481  141.8033  169.3530 C.3     1  UNL1        0.1242
     21 C         140.9814  141.6820  170.7734 C.3     1  UNL1        0.1636
     22 O         139.7630  140.8687  171.0956 O.3     1  UNL1       -0.3501
     23 C         139.0112  140.1766  169.9976 C.3     1  UNL1        0.1636
     24 C         139.4779  140.2978  168.5771 C.3     1  UNL1        0.1242
     25 C         144.3241  139.0169  163.3117 C.3     1  UNL1        0.1075
     26 C         143.7132  138.1136  162.2817 C.3     1  UNL1        0.0245
     27 C         142.5324  138.5785  161.4822 C.3     1  UNL1        0.0020
     28 C         141.1807  137.9729  161.7194 C.3     1  UNL1        0.0006
     29 C         140.8439  137.3920  163.0607 C.3     1  UNL1        0.0096
     30 C         139.5725  137.7876  163.7515 C.3     1  UNL1        0.0871
     31 C         138.6403  138.7677  163.1032 C.2     1  UNL1        0.2443
     32 O         138.4989  140.1518  163.6638 O.2     1  UNL1       -0.2730
     33 N         137.8495  138.3637  161.8945 N.am    1  UNL1       -0.1970
     34 O         136.9172  139.3439  161.2462 O.3     1  UNL1       -0.2952
     35 H         137.9423  137.4553  161.5265 H       1  UNL1        0.1822
     36 H         136.9449  140.1845  161.7293 H       1  UNL1        0.2414
@<TRIPOS>BOND
     1    10    11    1
     2    11    12   ar
     3    12    13   ar
     4    13    14   ar
     5    14     1    1
     6     1     2   ar
     7     2     3   ar
     8     3    19    1
     9    19    20    1
    10    20    21    1
    11    21    22    1
    12    22    23    1
    13    23    24    1
    14     3     4   ar
    15     4     5   ar
    16     5     6   ar
    17     6     7   ar
    18     7    25    1
    19    25    26    1
    20    26    27    1
    21    27    28    1
    22    28    29    1
    23    29    30    1
    24    30    31    1
    25    31    32    2
    26    31    33   am
    27    33    34    1
    28     7     8   ar
    29     8     9   ar
    30    14    15   ar
    31    15    16   ar
    32    16    11   ar
    33     9     1   ar
    34    24    19    1
    35     8     4   ar
    36    10    17    1
    37    10    18    1
    38    33    35    1
    39    34    36    1
@<TRIPOS>MOLECULE
*****
 36 39 0 0 0
SMALL
GASTEIGER

@<TRIPOS>ATOM
      1 C         140.7136  142.3911  166.4329 C.ar    1  UNL1        0.1682
      2 N         140.8383  143.3440  165.2813 N.ar    1  UNL1       -0.2117
      3 C         140.1693  143.0337  163.9751 C.ar    1  UNL1        0.1364
      4 C         139.3756  141.7703  163.8206 C.ar    1  UNL1        0.0673
      5 C         138.6110  141.2006  162.6626 C.ar    1  UNL1        0.0245
      6 C         138.0137  139.8956  163.0987 C.ar    1  UNL1        0.0772
      7 N         138.4092  139.6586  164.5261 N.ar    1  UNL1       -0.3114
      8 C         139.2509  140.8173  164.9722 C.ar    1  UNL1        0.1482
      9 N         139.9200  141.1277  166.2784 N.ar    1  UNL1       -0.2093
     10 N         143.3898  143.6325  171.6576 N.pl3   1  UNL1       -0.3274
     11 C         142.7208  143.3221  170.3514 C.ar    1  UNL1        0.2137
     12 N         143.5018  142.6824  169.2420 N.ar    1  UNL1       -0.2123
     13 C         142.8328  142.3721  167.9359 C.ar    1  UNL1        0.1064
     14 C         141.3827  142.7015  167.7391 C.ar    1  UNL1        0.0743
     15 C         140.6017  143.3412  168.8484 C.ar    1  UNL1        0.1064
     16 N         141.2707  143.6515  170.1547 N.ar    1  UNL1       -0.2123
     17 H         144.3416  143.4163  171.7867 H       1  UNL1        0.1452
     18 H         142.8772  144.0523  172.3857 H       1  UNL1        0.1452
     19 N         140.2940  143.9867  162.8234 N.pl3   1  UNL1       -0.2880
     20 C         141.1773  143.6457  161.6601 C.3     1  UNL1        0.1242
     21 C         141.3021  144.5986  160.5084 C.3     1  UNL1        0.1636
     22 O         140.5435  145.8926  160.5202 O.3     1  UNL1       -0.3501
     23 C         139.6602  146.2337  161.6836 C.3     1  UNL1        0.1636
     24 C         139.5355  145.2807  162.8353 C.3     1  UNL1        0.1242
     25 C         138.0297  138.4715  165.3607 C.3     1  UNL1        0.1075
     26 C         138.9697  137.3089  165.4826 C.3     1  UNL1        0.0245
     27 C         139.9426  137.0124  164.3801 C.3     1  UNL1        0.0020
     28 C         141.4084  137.2529  164.5885 C.3     1  UNL1        0.0006
     29 C         141.8955  138.6130  164.9923 C.3     1  UNL1        0.0096
     30 C         142.7252  138.7753  166.2313 C.3     1  UNL1        0.0871
     31 C         144.1348  138.2632  166.2624 C.2     1  UNL1        0.2443
     32 O         145.1370  138.7644  165.2653 O.2     1  UNL1       -0.2730
     33 N         144.5420  137.2498  167.2905 N.am    1  UNL1       -0.1970
     34 O         145.9516  136.7377  167.3216 O.3     1  UNL1       -0.2952
     35 H         143.8842  136.9208  167.9450 H       1  UNL1        0.1822
     36 H         146.4648  137.1605  166.6154 H       1  UNL1        0.2414
@<TRIPOS>BOND
     1    10    11    1
     2    11    12   ar
     3    12    13   ar
     4    13    14   ar
     5    14     1    1
     6     1     2   ar
     7     2     3   ar
     8     3    19    1
     9    19    20    1
    10    20    21    1
    11    21    22    1
    12    22    23    1
    13    23    24    1
    14     3     4   ar
    15     4     5   ar
    16     5     6   ar
    17     6     7   ar
    18     7    25    1
    19    25    26    1
    20    26    27    1
    21    27    28    1
    22    28    29    1
    23    29    30    1
    24    30    31    1
    25    31    32    2
    26    31    33   am
    27    33    34    1
    28     7     8   ar
    29     8     9   ar
    30    14    15   ar
    31    15    16   ar
    32    16    11   ar
    33     9     1   ar
    34    24    19    1
    35     8     4   ar
    36    10    17    1
    37    10    18    1
    38    33    35    1
    39    34    36    1
@<TRIPOS>MOLECULE
*****
 36 39 0 0 0
SMALL
GASTEIGER

@<TRIPOS>ATOM
      1 C         140.7872  142.1776  165.9961 C.ar    1  UNL1        0.1682
      2 N         140.8467  143.2144  164.9138 N.ar    1  UNL1       -0.2117
      3 C         140.2570  142.9255  163.5651 C.ar    1  UNL1        0.1364
      4 C         139.6078  141.5997  163.2989 C.ar    1  UNL1        0.0673
      5 C         138.9460  141.0334  162.0777 C.ar    1  UNL1        0.0245
      6 C         138.4775  139.6467  162.4053 C.ar    1  UNL1        0.0772
      7 N         138.8498  139.3558  163.8290 N.ar    1  UNL1       -0.3114
      8 C         139.5484  140.5629  164.3812 C.ar    1  UNL1        0.1482
      9 N         140.1381  140.8519  165.7299 N.ar    1  UNL1       -0.2093
     10 N         143.1457  143.3334  171.3907 N.pl3   1  UNL1       -0.3274
     11 C         142.5561  143.0445  170.0421 C.ar    1  UNL1        0.2137
     12 N         141.0889  143.2477  169.8058 N.ar    1  UNL1       -0.2123
     13 C         140.4992  142.9587  168.4572 C.ar    1  UNL1        0.1064
     14 C         141.3769  142.4666  167.3448 C.ar    1  UNL1        0.0743
     15 C         142.8441  142.2634  167.5810 C.ar    1  UNL1        0.1064
     16 N         143.4338  142.5523  168.9297 N.ar    1  UNL1       -0.2123
     17 H         142.5697  143.6564  172.1208 H       1  UNL1        0.1452
     18 H         144.1088  143.2000  171.5458 H       1  UNL1        0.1452
     19 N         140.3165  143.9623  162.4828 N.pl3   1  UNL1       -0.2880
     20 C         141.1904  143.7450  161.2832 C.3     1  UNL1        0.1242
     21 C         141.2500  144.7818  160.2009 C.3     1  UNL1        0.1636
     22 O         140.4355  146.0359  160.3181 O.3     1  UNL1       -0.3501
     23 C         139.5616  146.2533  161.5177 C.3     1  UNL1        0.1636
     24 C         139.5020  145.2165  162.6001 C.3     1  UNL1        0.1242
     25 C         138.5722  138.0816  164.5702 C.3     1  UNL1        0.1075
     26 C         139.7052  137.2946  165.1593 C.3     1  UNL1        0.0245
     27 C         140.9513  137.0595  164.3583 C.3     1  UNL1        0.0020
     28 C         142.1486  137.9407  164.5578 C.3     1  UNL1        0.0006
     29 C         142.7622  138.6491  163.3866 C.3     1  UNL1        0.0096
     30 C         142.9920  140.1303  163.4423 C.3     1  UNL1        0.0871
     31 C         144.2469  140.7168  162.8668 C.2     1  UNL1        0.2443
     32 O         144.4309  140.7819  161.3796 O.2     1  UNL1       -0.2730
     33 N         145.3177  141.2382  163.7785 N.am    1  UNL1       -0.1970
     34 O         146.5726  141.8247  163.2031 O.3     1  UNL1       -0.2952
     35 H         145.1969  141.1955  164.7547 H       1  UNL1        0.1822
     36 H         146.5310  141.7905  162.2346 H       1  UNL1        0.2414
@<TRIPOS>BOND
     1    10    11    1
     2    11    12   ar
     3    12    13   ar
     4    13    14   ar
     5    14     1    1
     6     1     2   ar
     7     2     3   ar
     8     3    19    1
     9    19    20    1
    10    20    21    1
    11    21    22    1
    12    22    23    1
    13    23    24    1
    14     3     4   ar
    15     4     5   ar
    16     5     6   ar
    17     6     7   ar
    18     7    25    1
    19    25    26    1
    20    26    27    1
    21    27    28    1
    22    28    29    1
    23    29    30    1
    24    30    31    1
    25    31    32    2
    26    31    33   am
    27    33    34    1
    28     7     8   ar
    29     8     9   ar
    30    14    15   ar
    31    15    16   ar
    32    16    11   ar
    33     9     1   ar
    34    24    19    1
    35     8     4   ar
    36    10    17    1
    37    10    18    1
    38    33    35    1
    39    34    36    1
@<TRIPOS>MOLECULE
*****
 36 39 0 0 0
SMALL
GASTEIGER

@<TRIPOS>ATOM
      1 C         141.1187  142.6697  164.4858 C.ar    1  UNL1        0.1682
      2 N         141.1104  142.8800  165.9709 N.ar    1  UNL1       -0.2117
      3 C         141.6389  141.8125  166.8826 C.ar    1  UNL1        0.1364
      4 C         142.1758  140.5347  166.3091 C.ar    1  UNL1        0.0673
      5 C         142.7582  139.3119  166.9537 C.ar    1  UNL1        0.0245
      6 C         143.1265  138.3458  165.8669 C.ar    1  UNL1        0.0772
      7 N         142.7717  138.9716  164.5506 N.ar    1  UNL1       -0.3114
      8 C         142.1841  140.3244  164.8239 C.ar    1  UNL1        0.1482
      9 N         141.6556  141.3919  163.9123 N.ar    1  UNL1       -0.2093
     10 N         139.0049  146.9396  160.8389 N.pl3   1  UNL1       -0.3274
     11 C         139.5333  145.8722  161.7507 C.ar    1  UNL1        0.2137
     12 N         141.0024  145.5702  161.7796 N.ar    1  UNL1       -0.2123
     13 C         141.5308  144.5027  162.6913 C.ar    1  UNL1        0.1064
     14 C         140.5902  143.7372  163.5741 C.ar    1  UNL1        0.0743
     15 C         139.1213  144.0391  163.5451 C.ar    1  UNL1        0.1064
     16 N         138.5928  145.1066  162.6334 N.ar    1  UNL1       -0.2123
     17 H         139.6222  147.4421  160.2596 H       1  UNL1        0.1452
     18 H         138.0407  147.1378  160.8199 H       1  UNL1        0.1452
     19 N         141.6305  142.0229  168.3678 N.pl3   1  UNL1       -0.2880
     20 C         140.3777  141.7723  169.1536 C.3     1  UNL1        0.1242
     21 C         140.3692  141.9827  170.6388 C.3     1  UNL1        0.1636
     22 O         141.6136  142.4436  171.3380 O.3     1  UNL1       -0.3501
     23 C         142.8664  142.6942  170.5522 C.3     1  UNL1        0.1636
     24 C         142.8749  142.4838  169.0670 C.3     1  UNL1        0.1242
     25 C         142.9697  138.3531  163.1985 C.3     1  UNL1        0.1075
     26 C         143.8996  138.9924  162.2102 C.3     1  UNL1        0.0245
     27 C         143.4124  139.3309  160.8326 C.3     1  UNL1        0.0020
     28 C         143.8276  140.6190  160.1857 C.3     1  UNL1        0.0006
     29 C         143.5420  141.9256  160.8647 C.3     1  UNL1        0.0096
     30 C         144.6633  142.7177  161.4691 C.3     1  UNL1        0.0871
     31 C         145.0423  142.5060  162.9049 C.2     1  UNL1        0.2443
     32 O         146.1217  141.5265  163.2590 O.2     1  UNL1       -0.2730
     33 N         144.3420  143.2738  163.9864 N.am    1  UNL1       -0.1970
     34 O         144.7210  143.0621  165.4222 O.3     1  UNL1       -0.2952
     35 H         143.6335  143.9167  163.7540 H       1  UNL1        0.1822
     36 H         145.4292  142.4015  165.4757 H       1  UNL1        0.2414
@<TRIPOS>BOND
     1    10    11    1
     2    11    12   ar
     3    12    13   ar
     4    13    14   ar
     5    14     1    1
     6     1     2   ar
     7     2     3   ar
     8     3    19    1
     9    19    20    1
    10    20    21    1
    11    21    22    1
    12    22    23    1
    13    23    24    1
    14     3     4   ar
    15     4     5   ar
    16     5     6   ar
    17     6     7   ar
    18     7    25    1
    19    25    26    1
    20    26    27    1
    21    27    28    1
    22    28    29    1
    23    29    30    1
    24    30    31    1
    25    31    32    2
    26    31    33   am
    27    33    34    1
    28     7     8   ar
    29     8     9   ar
    30    14    15   ar
    31    15    16   ar
    32    16    11   ar
    33     9     1   ar
    34    24    19    1
    35     8     4   ar
    36    10    17    1
    37    10    18    1
    38    33    35    1
    39    34    36    1
@<TRIPOS>MOLECULE
*****
 36 39 0 0 0
SMALL
GASTEIGER

@<TRIPOS>ATOM
      1 C         140.8476  139.6567  163.5961 C.ar    1  UNL1        0.1682
      2 N         140.8372  139.1177  162.1964 N.ar    1  UNL1       -0.2117
      3 C         141.8047  139.6493  161.1807 C.ar    1  UNL1        0.1364
      4 C         142.7826  140.7199  161.5650 C.ar    1  UNL1        0.0673
      5 C         143.8475  141.4331  160.7858 C.ar    1  UNL1        0.0245
      6 C         144.5160  142.4129  161.7040 C.ar    1  UNL1        0.0772
      7 N         143.8642  142.3052  163.0507 N.ar    1  UNL1       -0.3114
      8 C         142.7929  141.2589  162.9648 C.ar    1  UNL1        0.1482
      9 N         141.8254  140.7273  163.9803 N.ar    1  UNL1       -0.2093
     10 N         136.9777  137.5301  167.6583 N.pl3   1  UNL1       -0.3274
     11 C         137.9451  138.0618  166.6428 C.ar    1  UNL1        0.2137
     12 N         138.3186  137.2271  165.4538 N.ar    1  UNL1       -0.2123
     13 C         139.2860  137.7587  164.4382 C.ar    1  UNL1        0.1064
     14 C         139.8801  139.1251  164.6117 C.ar    1  UNL1        0.0743
     15 C         139.5067  139.9598  165.8006 C.ar    1  UNL1        0.1064
     16 N         138.5392  139.4282  166.8163 N.ar    1  UNL1       -0.2123
     17 H         136.5878  136.6333  167.5445 H       1  UNL1        0.1452
     18 H         136.7326  138.0780  168.4387 H       1  UNL1        0.1452
     19 N         141.7943  139.1103  159.7809 N.pl3   1  UNL1       -0.2880
     20 C         140.8823  139.7111  158.7527 C.3     1  UNL1        0.1242
     21 C         140.8718  139.1721  157.3530 C.3     1  UNL1        0.1636
     22 O         141.7735  138.0324  156.9814 O.3     1  UNL1       -0.3501
     23 C         142.6855  137.4316  158.0096 C.3     1  UNL1        0.1636
     24 C         142.6960  137.9706  159.4094 C.3     1  UNL1        0.1242
     25 C         144.2212  143.1037  164.2693 C.3     1  UNL1        0.1075
     26 C         143.5059  144.3900  164.5592 C.3     1  UNL1        0.0245
     27 C         142.5956  144.9905  163.5294 C.3     1  UNL1        0.0020
     28 C         141.1817  144.5054  163.4039 C.3     1  UNL1        0.0006
     29 C         140.4245  144.0769  164.6258 C.3     1  UNL1        0.0096
     30 C         138.9346  144.2414  164.6809 C.3     1  UNL1        0.0871
     31 C         138.0604  143.4819  163.7275 C.2     1  UNL1        0.2443
     32 O         137.7761  144.0393  162.3642 O.2     1  UNL1       -0.2730
     33 N         137.4705  142.1652  164.1373 N.am    1  UNL1       -0.1970
     34 O         136.5963  141.4057  163.1839 O.3     1  UNL1       -0.2952
     35 H         137.6571  141.7994  165.0321 H       1  UNL1        0.1822
     36 H         136.5154  141.9017  162.3543 H       1  UNL1        0.2414
@<TRIPOS>BOND
     1    10    11    1
     2    11    12   ar
     3    12    13   ar
     4    13    14   ar
     5    14     1    1
     6     1     2   ar
     7     2     3   ar
     8     3    19    1
     9    19    20    1
    10    20    21    1
    11    21    22    1
    12    22    23    1
    13    23    24    1
    14     3     4   ar
    15     4     5   ar
    16     5     6   ar
    17     6     7   ar
    18     7    25    1
    19    25    26    1
    20    26    27    1
    21    27    28    1
    22    28    29    1
    23    29    30    1
    24    30    31    1
    25    31    32    2
    26    31    33   am
    27    33    34    1
    28     7     8   ar
    29     8     9   ar
    30    14    15   ar
    31    15    16   ar
    32    16    11   ar
    33     9     1   ar
    34    24    19    1
    35     8     4   ar
    36    10    17    1
    37    10    18    1
    38    33    35    1
    39    34    36    1
@<TRIPOS>MOLECULE
*****
 36 39 0 0 0
SMALL
GASTEIGER

@<TRIPOS>ATOM
      1 C         140.3676  141.3968  165.1753 C.ar    1  UNL1        0.1682
      2 N         139.8018  140.7149  163.9651 N.ar    1  UNL1       -0.2117
      3 C         140.2387  141.1368  162.5935 C.ar    1  UNL1        0.1364
      4 C         141.2414  142.2407  162.4323 C.ar    1  UNL1        0.0673
      5 C         141.8570  142.8678  161.2167 C.ar    1  UNL1        0.0245
      6 C         142.8033  143.9373  161.6757 C.ar    1  UNL1        0.0772
      7 N         142.7725  143.9712  163.1750 N.ar    1  UNL1       -0.3114
      8 C         141.8072  142.9227  163.6426 C.ar    1  UNL1        0.1482
      9 N         141.3703  142.5007  165.0141 N.ar    1  UNL1       -0.2093
     10 N         138.6200  139.7090  170.6614 N.pl3   1  UNL1       -0.3274
     11 C         139.0569  140.1310  169.2899 C.ar    1  UNL1        0.2137
     12 N         138.6275  139.3404  168.0896 N.ar    1  UNL1       -0.2123
     13 C         139.0645  139.7623  166.7181 C.ar    1  UNL1        0.1064
     14 C         139.9307  140.9749  166.5469 C.ar    1  UNL1        0.0743
     15 C         140.3600  141.7655  167.7471 C.ar    1  UNL1        0.1064
     16 N         139.9231  141.3435  169.1187 N.ar    1  UNL1       -0.2123
     17 H         138.0514  138.9132  170.7738 H       1  UNL1        0.1452
     18 H         138.9017  140.2279  171.4492 H       1  UNL1        0.1452
     19 N         139.6728  140.4548  161.3832 N.pl3   1  UNL1       -0.2880
     20 C         138.4286  140.9866  160.7358 C.3     1  UNL1        0.1242
     21 C         137.8627  140.3046  159.5256 C.3     1  UNL1        0.1636
     22 O         138.5411  139.0910  158.9627 O.3     1  UNL1       -0.3501
     23 C         139.7853  138.5593  159.6101 C.3     1  UNL1        0.1636
     24 C         140.3513  139.2412  160.8203 C.3     1  UNL1        0.1242
     25 C         143.5675  144.8920  164.0526 C.3     1  UNL1        0.1075
     26 C         144.5437  144.3280  165.0420 C.3     1  UNL1        0.0245
     27 C         144.7647  142.8463  165.1163 C.3     1  UNL1        0.0020
     28 C         145.4597  142.1344  163.9937 C.3     1  UNL1        0.0006
     29 C         144.9370  140.8167  163.5034 C.3     1  UNL1        0.0096
     30 C         145.0204  139.6032  164.3812 C.3     1  UNL1        0.0871
     31 C         143.7693  138.8761  164.7765 C.2     1  UNL1        0.2443
     32 O         143.7042  138.1553  166.0903 O.2     1  UNL1       -0.2730
     33 N         142.5835  138.8699  163.8581 N.am    1  UNL1       -0.1970
     34 O         141.3325  138.1428  164.2533 O.3     1  UNL1       -0.2952
     35 H         142.6263  139.3430  162.9958 H       1  UNL1        0.1822
     36 H         141.4573  137.7345  165.1243 H       1  UNL1        0.2414
@<TRIPOS>BOND
     1    10    11    1
     2    11    12   ar
     3    12    13   ar
     4    13    14   ar
     5    14     1    1
     6     1     2   ar
     7     2     3   ar
     8     3    19    1
     9    19    20    1
    10    20    21    1
    11    21    22    1
    12    22    23    1
    13    23    24    1
    14     3     4   ar
    15     4     5   ar
    16     5     6   ar
    17     6     7   ar
    18     7    25    1
    19    25    26    1
    20    26    27    1
    21    27    28    1
    22    28    29    1
    23    29    30    1
    24    30    31    1
    25    31    32    2
    26    31    33   am
    27    33    34    1
    28     7     8   ar
    29     8     9   ar
    30    14    15   ar
    31    15    16   ar
    32    16    11   ar
    33     9     1   ar
    34    24    19    1
    35     8     4   ar
    36    10    17    1
    37    10    18    1
    38    33    35    1
    39    34    36    1
