@<TRIPOS>MOLECULE
*****
 38 42 0 0 0
SMALL
GASTEIGER

@<TRIPOS>ATOM
      1 C         138.3952  140.0594  159.8097 C.3     1  UNL1        0.0118
      2 C         139.2804  138.8493  159.7641 C.3     1  UNL1        0.0179
      3 C         139.5067  138.0384  161.0055 C.3     1  UNL1        0.0724
      4 N         138.8478  138.4377  162.2926 N.3     1  UNL1       -0.2689
      5 C         137.9627  139.6478  162.3382 C.3     1  UNL1        0.0724
      6 C         137.7364  140.4586  161.0968 C.3     1  UNL1        0.0179
      7 C         138.1689  140.8703  158.5682 C.3     1  UNL1        0.0854
      8 O         139.8035  140.7829  156.5507 O.2     1  UNL1       -0.2749
      9 C         139.3383  141.4361  157.8184 C.2     1  UNL1        0.2256
     10 N         140.0426  142.6551  158.3361 N.am    1  UNL1       -0.2790
     11 C         141.2120  143.2209  157.5863 C.3     1  UNL1        0.0934
     12 C         141.9163  144.4398  158.1041 C.3     1  UNL1        0.0221
     13 C         141.4511  145.0930  159.3717 C.3     1  UNL1        0.0126
     14 C         140.2816  144.5273  160.1216 C.3     1  UNL1        0.0965
     15 C         139.5774  143.3083  159.6038 C.3     1  UNL1        0.1024
     16 C         139.8164  145.1805  161.3892 C.2     1  UNL1        0.2268
     17 O         139.2240  146.5579  161.3495 O.2     1  UNL1       -0.2748
     18 N         139.9436  144.4562  162.6966 N.am    1  UNL1       -0.2795
     19 C         139.5244  144.9790  164.0386 C.3     1  UNL1        0.0935
     20 C         139.8341  143.9279  165.0629 C.3     1  UNL1        0.0233
     21 C         140.4447  142.7554  164.3539 C.3     1  UNL1        0.0233
     22 C         140.5124  143.0820  162.8915 C.3     1  UNL1        0.0935
     23 C         139.0742  137.6267  163.5341 C.3     1  UNL1        0.1007
     24 C         139.1340  138.3034  164.8714 C.ar    1  UNL1        0.0129
     25 C         138.0772  138.2501  165.9346 C.ar    1  UNL1        0.0176
     26 C         138.5512  139.0660  167.1006 C.ar    1  UNL1        0.0799
     27 N         139.9010  139.6236  166.7581 N.ar    1  UNL1       -0.3038
     28 C         140.2611  139.1523  165.3804 C.ar    1  UNL1        0.0772
     29 C         140.7427  140.4988  167.6387 C.ar    1  UNL1        0.0640
     30 C         142.0278  139.9753  168.2082 C.ar    1  UNL1        0.0175
     31 C         142.8695  140.8505  169.0888 C.ar    1  UNL1        0.0053
     32 C         142.4262  142.2492  169.3998 C.ar    1  UNL1        0.0715
     33 C         141.1411  142.7729  168.8303 C.ar    1  UNL1        0.0053
     34 C         140.2994  141.8976  167.9498 C.ar    1  UNL1        0.0175
     35 C         143.2679  143.1244  170.2804 C.3     1  UNL1        0.4186
     36 F         144.1096  143.9997  171.1611 F       1  UNL1       -0.1659
     37 F         144.4458  142.2251  170.0484 F       1  UNL1       -0.1659
     38 F         142.0900  144.0238  170.5125 F       1  UNL1       -0.1659
@<TRIPOS>BOND
     1     8     9    2
     2     9     7    1
     3     7     1    1
     4     1     2    1
     5     2     3    1
     6     3     4    1
     7     4    23    1
     8    23    24    1
     9    24    25   ar
    10    25    26   ar
    11    26    27   ar
    12    27    29    1
    13    29    30   ar
    14    30    31   ar
    15    31    32   ar
    16    32    35    1
    17    35    36    1
    18    35    37    1
    19    35    38    1
    20    32    33   ar
    21    33    34   ar
    22    27    28   ar
    23     4     5    1
    24     5     6    1
    25     9    10   am
    26    10    11    1
    27    11    12    1
    28    12    13    1
    29    13    14    1
    30    14    16    1
    31    16    17    2
    32    16    18   am
    33    18    19    1
    34    19    20    1
    35    20    21    1
    36    21    22    1
    37    14    15    1
    38     6     1    1
    39    15    10    1
    40    28    24   ar
    41    22    18    1
    42    34    29   ar
@<TRIPOS>MOLECULE
*****
 38 42 0 0 0
SMALL
GASTEIGER

@<TRIPOS>ATOM
      1 C         139.7933  139.3177  160.0009 C.3     1  UNL1        0.0118
      2 C         140.8911  138.6118  160.7401 C.3     1  UNL1        0.0179
      3 C         140.6044  137.9490  162.0548 C.3     1  UNL1        0.0724
      4 N         139.2198  137.9920  162.6302 N.3     1  UNL1       -0.2689
      5 C         138.1220  138.6978  161.8910 C.3     1  UNL1        0.0724
      6 C         138.4087  139.3607  160.5764 C.3     1  UNL1        0.0179
      7 C         140.0800  139.9806  158.6862 C.3     1  UNL1        0.0854
      8 O         138.4662  141.6249  157.4854 O.2     1  UNL1       -0.2749
      9 C         139.6036  141.3800  158.4322 C.2     1  UNL1        0.2256
     10 N         140.2645  142.5347  159.1250 N.am    1  UNL1       -0.2790
     11 C         139.7881  143.9342  158.8710 C.3     1  UNL1        0.0934
     12 C         140.4491  145.0887  159.5638 C.3     1  UNL1        0.0221
     13 C         141.5865  144.8439  160.5106 C.3     1  UNL1        0.0126
     14 C         142.0629  143.4444  160.7646 C.3     1  UNL1        0.0965
     15 C         141.4019  142.2899  160.0718 C.3     1  UNL1        0.1024
     16 C         143.2003  143.1996  161.7114 C.2     1  UNL1        0.2268
     17 O         144.6027  143.0987  161.1888 O.2     1  UNL1       -0.2748
     18 N         142.9353  143.0555  163.1807 N.am    1  UNL1       -0.2795
     19 C         143.9658  142.8094  164.2425 C.3     1  UNL1        0.0935
     20 C         143.2607  142.7340  165.5643 C.3     1  UNL1        0.0233
     21 C         141.7943  142.9336  165.3194 C.3     1  UNL1        0.0233
     22 C         141.5932  143.1323  163.8462 C.3     1  UNL1        0.0935
     23 C         138.9331  137.3291  163.9449 C.3     1  UNL1        0.1007
     24 C         139.0015  138.1229  165.2158 C.ar    1  UNL1        0.0129
     25 C         137.9148  138.2372  166.2434 C.ar    1  UNL1        0.0176
     26 C         138.4101  139.1267  167.3449 C.ar    1  UNL1        0.0799
     27 N         139.8031  139.5621  166.9981 N.ar    1  UNL1       -0.3038
     28 C         140.1685  138.9417  165.6822 C.ar    1  UNL1        0.0772
     29 C         140.6771  140.4602  167.8224 C.ar    1  UNL1        0.0640
     30 C         142.0904  140.0595  168.1253 C.ar    1  UNL1        0.0175
     31 C         142.9644  140.9576  168.9496 C.ar    1  UNL1        0.0053
     32 C         142.4250  142.2565  169.4710 C.ar    1  UNL1        0.0715
     33 C         141.0117  142.6573  169.1682 C.ar    1  UNL1        0.0053
     34 C         140.1377  141.7592  168.3439 C.ar    1  UNL1        0.0175
     35 C         143.2990  143.1546  170.2954 C.3     1  UNL1        0.4186
     36 F         144.1731  144.0526  171.1197 F       1  UNL1       -0.1659
     37 F         142.1432  144.0875  170.5043 F       1  UNL1       -0.1659
     38 F         144.4549  142.2216  170.0864 F       1  UNL1       -0.1659
@<TRIPOS>BOND
     1     8     9    2
     2     9     7    1
     3     7     1    1
     4     1     2    1
     5     2     3    1
     6     3     4    1
     7     4    23    1
     8    23    24    1
     9    24    25   ar
    10    25    26   ar
    11    26    27   ar
    12    27    29    1
    13    29    30   ar
    14    30    31   ar
    15    31    32   ar
    16    32    35    1
    17    35    36    1
    18    35    37    1
    19    35    38    1
    20    32    33   ar
    21    33    34   ar
    22    27    28   ar
    23     4     5    1
    24     5     6    1
    25     9    10   am
    26    10    11    1
    27    11    12    1
    28    12    13    1
    29    13    14    1
    30    14    16    1
    31    16    17    2
    32    16    18   am
    33    18    19    1
    34    19    20    1
    35    20    21    1
    36    21    22    1
    37    14    15    1
    38     6     1    1
    39    15    10    1
    40    28    24   ar
    41    22    18    1
    42    34    29   ar
@<TRIPOS>MOLECULE
*****
 38 42 0 0 0
SMALL
GASTEIGER

@<TRIPOS>ATOM
      1 C         138.9158  140.4373  158.7736 C.3     1  UNL1        0.0118
      2 C         140.2035  139.7251  158.4829 C.3     1  UNL1        0.0179
      3 C         140.8358  138.8603  159.5328 C.3     1  UNL1        0.0724
      4 N         140.1804  138.7078  160.8734 N.3     1  UNL1       -0.2689
      5 C         138.8927  139.4200  161.1641 C.3     1  UNL1        0.0724
      6 C         138.2604  140.2847  160.1142 C.3     1  UNL1        0.0179
      7 C         138.2834  141.3020  157.7236 C.3     1  UNL1        0.0854
      8 O         139.2837  141.5986  155.3443 O.2     1  UNL1       -0.2749
      9 C         139.1450  142.0664  156.7627 C.2     1  UNL1        0.2256
     10 N         139.8679  143.2985  157.2202 N.am    1  UNL1       -0.2790
     11 C         140.7295  144.0629  156.2593 C.3     1  UNL1        0.0934
     12 C         141.4523  145.2950  156.7168 C.3     1  UNL1        0.0221
     13 C         141.3136  145.7627  158.1353 C.3     1  UNL1        0.0126
     14 C         140.4520  144.9984  159.0962 C.3     1  UNL1        0.0965
     15 C         139.7292  143.7663  158.6387 C.3     1  UNL1        0.1024
     16 C         140.3133  145.4661  160.5146 C.2     1  UNL1        0.2268
     17 O         139.2157  146.4185  160.8864 O.2     1  UNL1       -0.2748
     18 N         141.2722  144.9815  161.5613 N.am    1  UNL1       -0.2795
     19 C         141.2584  145.3600  163.0128 C.3     1  UNL1        0.0935
     20 C         142.3909  144.6458  163.6889 C.3     1  UNL1        0.0233
     21 C         143.1047  143.8258  162.6553 C.3     1  UNL1        0.0233
     22 C         142.4133  144.0334  161.3404 C.3     1  UNL1        0.0935
     23 C         140.8128  137.8431  161.9234 C.3     1  UNL1        0.1007
     24 C         141.7878  138.4366  162.8965 C.ar    1  UNL1        0.0129
     25 C         143.2830  138.3832  162.7900 C.ar    1  UNL1        0.0176
     26 C         143.8581  139.1014  163.9747 C.ar    1  UNL1        0.0799
     27 N         142.7182  139.5987  164.8135 N.ar    1  UNL1       -0.3038
     28 C         141.4387  139.1878  164.1471 C.ar    1  UNL1        0.0772
     29 C         142.8371  140.3711  166.0937 C.ar    1  UNL1        0.0640
     30 C         142.5827  139.6912  167.4063 C.ar    1  UNL1        0.0175
     31 C         142.7015  140.4637  168.6866 C.ar    1  UNL1        0.0053
     32 C         143.0747  141.9161  168.6543 C.ar    1  UNL1        0.0715
     33 C         143.3291  142.5961  167.3417 C.ar    1  UNL1        0.0053
     34 C         143.2103  141.8236  166.0614 C.ar    1  UNL1        0.0175
     35 C         143.1936  142.6885  169.9346 C.3     1  UNL1        0.4186
     36 F         143.3123  143.4610  171.2149 F       1  UNL1       -0.1659
     37 F         144.6860  142.5484  169.8806 F       1  UNL1       -0.1659
     38 F         141.7010  142.8287  169.9886 F       1  UNL1       -0.1659
@<TRIPOS>BOND
     1     8     9    2
     2     9     7    1
     3     7     1    1
     4     1     2    1
     5     2     3    1
     6     3     4    1
     7     4    23    1
     8    23    24    1
     9    24    25   ar
    10    25    26   ar
    11    26    27   ar
    12    27    29    1
    13    29    30   ar
    14    30    31   ar
    15    31    32   ar
    16    32    35    1
    17    35    36    1
    18    35    37    1
    19    35    38    1
    20    32    33   ar
    21    33    34   ar
    22    27    28   ar
    23     4     5    1
    24     5     6    1
    25     9    10   am
    26    10    11    1
    27    11    12    1
    28    12    13    1
    29    13    14    1
    30    14    16    1
    31    16    17    2
    32    16    18   am
    33    18    19    1
    34    19    20    1
    35    20    21    1
    36    21    22    1
    37    14    15    1
    38     6     1    1
    39    15    10    1
    40    28    24   ar
    41    22    18    1
    42    34    29   ar
@<TRIPOS>MOLECULE
*****
 38 42 0 0 0
SMALL
GASTEIGER

@<TRIPOS>ATOM
      1 C         142.1707  139.5171  159.6955 C.3     1  UNL1        0.0118
      2 C         140.6799  139.4083  159.5701 C.3     1  UNL1        0.0179
      3 C         139.8839  138.7341  160.6478 C.3     1  UNL1        0.0724
      4 N         140.5785  138.1685  161.8510 N.3     1  UNL1       -0.2689
      5 C         142.0693  138.2772  161.9764 C.3     1  UNL1        0.0724
      6 C         142.8654  138.9515  160.8987 C.3     1  UNL1        0.0179
      7 C         142.9669  140.1914  158.6178 C.3     1  UNL1        0.0854
      8 O         142.0899  140.9166  156.2822 O.2     1  UNL1       -0.2749
      9 C         142.3173  141.2150  157.7345 C.2     1  UNL1        0.2256
     10 N         141.8950  142.5372  158.3035 N.am    1  UNL1       -0.2790
     11 C         141.2455  143.5608  157.4203 C.3     1  UNL1        0.0934
     12 C         140.8233  144.8828  157.9893 C.3     1  UNL1        0.0221
     13 C         141.0506  145.1813  159.4416 C.3     1  UNL1        0.0126
     14 C         141.7002  144.1577  160.3249 C.3     1  UNL1        0.0965
     15 C         142.1224  142.8356  159.7559 C.3     1  UNL1        0.1024
     16 C         141.9276  144.4561  161.7772 C.2     1  UNL1        0.2268
     17 O         143.3106  144.7579  162.2733 O.2     1  UNL1       -0.2748
     18 N         140.7720  144.4527  162.7335 N.am    1  UNL1       -0.2795
     19 C         140.8449  144.7311  164.2056 C.3     1  UNL1        0.0935
     20 C         139.4585  144.6208  164.7675 C.3     1  UNL1        0.0233
     21 C         138.5287  144.2742  163.6425 C.3     1  UNL1        0.0233
     22 C         139.3405  144.1703  162.3855 C.3     1  UNL1        0.0935
     23 C         139.7824  137.4942  162.9287 C.3     1  UNL1        0.1007
     24 C         139.6751  138.1226  164.2865 C.ar    1  UNL1        0.0129
     25 C         138.5385  137.9508  165.2502 C.ar    1  UNL1        0.0176
     26 C         138.8465  138.7551  166.4783 C.ar    1  UNL1        0.0799
     27 N         140.1735  139.4240  166.2736 N.ar    1  UNL1       -0.3038
     28 C         140.6856  139.0330  164.9190 C.ar    1  UNL1        0.0772
     29 C         140.8666  140.3255  167.2518 C.ar    1  UNL1        0.0640
     30 C         140.4196  141.7488  167.4069 C.ar    1  UNL1        0.0175
     31 C         141.1128  142.6503  168.3850 C.ar    1  UNL1        0.0053
     32 C         142.2529  142.1285  169.2081 C.ar    1  UNL1        0.0715
     33 C         142.7000  140.7051  169.0531 C.ar    1  UNL1        0.0053
     34 C         142.0069  139.8036  168.0749 C.ar    1  UNL1        0.0175
     35 C         142.9461  143.0299  170.1863 C.3     1  UNL1        0.4186
     36 F         143.6393  143.9314  171.1645 F       1  UNL1       -0.1659
     37 F         141.6893  143.8351  170.3349 F       1  UNL1       -0.1659
     38 F         144.2030  142.2248  170.0378 F       1  UNL1       -0.1659
@<TRIPOS>BOND
     1     8     9    2
     2     9     7    1
     3     7     1    1
     4     1     2    1
     5     2     3    1
     6     3     4    1
     7     4    23    1
     8    23    24    1
     9    24    25   ar
    10    25    26   ar
    11    26    27   ar
    12    27    29    1
    13    29    30   ar
    14    30    31   ar
    15    31    32   ar
    16    32    35    1
    17    35    36    1
    18    35    37    1
    19    35    38    1
    20    32    33   ar
    21    33    34   ar
    22    27    28   ar
    23     4     5    1
    24     5     6    1
    25     9    10   am
    26    10    11    1
    27    11    12    1
    28    12    13    1
    29    13    14    1
    30    14    16    1
    31    16    17    2
    32    16    18   am
    33    18    19    1
    34    19    20    1
    35    20    21    1
    36    21    22    1
    37    14    15    1
    38     6     1    1
    39    15    10    1
    40    28    24   ar
    41    22    18    1
    42    34    29   ar
@<TRIPOS>MOLECULE
*****
 38 42 0 0 0
SMALL
GASTEIGER

@<TRIPOS>ATOM
      1 C         143.7420  143.0516  158.8583 C.3     1  UNL1        0.0118
      2 C         143.8256  142.9766  160.3540 C.3     1  UNL1        0.0179
      3 C         142.8310  143.7161  161.1988 C.3     1  UNL1        0.0724
      4 N         141.7527  144.5307  160.5478 N.3     1  UNL1       -0.2689
      5 C         141.6691  144.6057  159.0520 C.3     1  UNL1        0.0724
      6 C         142.6637  143.8661  158.2073 C.3     1  UNL1        0.0179
      7 C         144.7367  142.3120  158.0134 C.3     1  UNL1        0.0854
      8 O         144.3713  141.7599  155.5011 O.2     1  UNL1       -0.2749
      9 C         144.2616  141.3715  156.9458 C.2     1  UNL1        0.2256
     10 N         143.6769  140.0426  157.3228 N.am    1  UNL1       -0.2790
     11 C         143.2018  139.1021  156.2552 C.3     1  UNL1        0.0934
     12 C         142.6171  137.7733  156.6323 C.3     1  UNL1        0.0221
     13 C         142.5074  137.3849  158.0770 C.3     1  UNL1        0.0126
     14 C         142.9824  138.3254  159.1446 C.3     1  UNL1        0.0965
     15 C         143.5671  139.6542  158.7675 C.3     1  UNL1        0.1024
     16 C         142.8727  137.9370  160.5893 C.2     1  UNL1        0.2268
     17 O         144.0992  137.5332  161.3526 O.2     1  UNL1       -0.2748
     18 N         141.5365  137.9523  161.2706 N.am    1  UNL1       -0.2795
     19 C         141.2727  137.5914  162.7025 C.3     1  UNL1        0.0935
     20 C         139.8027  137.7473  162.9566 C.3     1  UNL1        0.0233
     21 C         139.1579  138.2047  161.6818 C.3     1  UNL1        0.0233
     22 C         140.2295  138.3314  160.6398 C.3     1  UNL1        0.0935
     23 C         140.7580  145.2703  161.3927 C.3     1  UNL1        0.1007
     24 C         140.0186  144.5522  162.4824 C.ar    1  UNL1        0.0129
     25 C         138.5285  144.4318  162.6055 C.ar    1  UNL1        0.0176
     26 C         138.2284  143.6336  163.8395 C.ar    1  UNL1        0.0799
     27 N         139.5330  143.2606  164.4790 N.ar    1  UNL1       -0.3038
     28 C         140.6394  143.8283  163.6403 C.ar    1  UNL1        0.0772
     29 C         139.7016  142.4604  165.7365 C.ar    1  UNL1        0.0640
     30 C         140.2979  143.0974  166.9565 C.ar    1  UNL1        0.0175
     31 C         140.4665  142.2972  168.2140 C.ar    1  UNL1        0.0053
     32 C         140.0387  140.8601  168.2515 C.ar    1  UNL1        0.0715
     33 C         139.4423  140.2230  167.0314 C.ar    1  UNL1        0.0053
     34 C         139.2738  141.0232  165.7740 C.ar    1  UNL1        0.0175
     35 C         140.2073  140.0599  169.5089 C.3     1  UNL1        0.4186
     36 F         140.3758  139.2597  170.7665 F       1  UNL1       -0.1659
     37 F         141.5203  139.5407  169.0025 F       1  UNL1       -0.1659
     38 F         138.8942  140.5791  170.0154 F       1  UNL1       -0.1659
@<TRIPOS>BOND
     1     8     9    2
     2     9     7    1
     3     7     1    1
     4     1     2    1
     5     2     3    1
     6     3     4    1
     7     4    23    1
     8    23    24    1
     9    24    25   ar
    10    25    26   ar
    11    26    27   ar
    12    27    29    1
    13    29    30   ar
    14    30    31   ar
    15    31    32   ar
    16    32    35    1
    17    35    36    1
    18    35    37    1
    19    35    38    1
    20    32    33   ar
    21    33    34   ar
    22    27    28   ar
    23     4     5    1
    24     5     6    1
    25     9    10   am
    26    10    11    1
    27    11    12    1
    28    12    13    1
    29    13    14    1
    30    14    16    1
    31    16    17    2
    32    16    18   am
    33    18    19    1
    34    19    20    1
    35    20    21    1
    36    21    22    1
    37    14    15    1
    38     6     1    1
    39    15    10    1
    40    28    24   ar
    41    22    18    1
    42    34    29   ar
@<TRIPOS>MOLECULE
*****
 38 42 0 0 0
SMALL
GASTEIGER

@<TRIPOS>ATOM
      1 C         141.2850  142.8725  165.4147 C.3     1  UNL1        0.0118
      2 C         142.3149  143.1020  164.3487 C.3     1  UNL1        0.0179
      3 C         142.0047  143.9983  163.1867 C.3     1  UNL1        0.0724
      4 N         140.6645  144.6651  163.0907 N.3     1  UNL1       -0.2689
      5 C         139.6345  144.4356  164.1567 C.3     1  UNL1        0.0724
      6 C         139.9447  143.5392  165.3187 C.3     1  UNL1        0.0179
      7 C         141.5952  141.9761  166.5768 C.3     1  UNL1        0.0854
      8 O         140.0637  141.7027  168.6576 O.2     1  UNL1       -0.2749
      9 C         140.4861  141.2595  167.2882 C.2     1  UNL1        0.2256
     10 N         139.7992  140.0995  166.6303 N.am    1  UNL1       -0.2790
     11 C         138.6901  139.3828  167.3417 C.3     1  UNL1        0.0934
     12 C         138.0034  138.2229  166.6838 C.3     1  UNL1        0.0221
     13 C         138.4258  137.7796  165.3144 C.3     1  UNL1        0.0126
     14 C         139.5349  138.4963  164.6030 C.3     1  UNL1        0.0965
     15 C         140.2216  139.6562  165.2609 C.3     1  UNL1        0.1024
     16 C         139.9573  138.0530  163.2337 C.2     1  UNL1        0.2268
     17 O         140.9580  136.9464  163.0790 O.2     1  UNL1       -0.2748
     18 N         139.3790  138.7164  162.0190 N.am    1  UNL1       -0.2795
     19 C         139.7038  138.3823  160.5932 C.3     1  UNL1        0.0935
     20 C         138.8999  139.2897  159.7098 C.3     1  UNL1        0.0233
     21 C         138.0782  140.1846  160.5897 C.3     1  UNL1        0.0233
     22 C         138.3743  139.8302  162.0169 C.3     1  UNL1        0.0935
     23 C         140.3542  145.5615  161.9286 C.3     1  UNL1        0.1007
     24 C         140.3462  145.0070  160.5349 C.ar    1  UNL1        0.0129
     25 C         141.1221  145.5428  159.3684 C.ar    1  UNL1        0.0176
     26 C         140.8164  144.6863  158.1755 C.ar    1  UNL1        0.0799
     27 N         139.8515  143.6210  158.6049 N.ar    1  UNL1       -0.3038
     28 C         139.5609  143.8192  160.0630 C.ar    1  UNL1        0.0772
     29 C         139.2779  142.5463  157.7297 C.ar    1  UNL1        0.0640
     30 C         140.1911  141.6093  156.9964 C.ar    1  UNL1        0.0175
     31 C         139.6175  140.5345  156.1212 C.ar    1  UNL1        0.0053
     32 C         138.1307  140.3969  155.9793 C.ar    1  UNL1        0.0715
     33 C         137.2174  141.3339  156.7126 C.ar    1  UNL1        0.0053
     34 C         137.7910  142.4086  157.5878 C.ar    1  UNL1        0.0175
     35 C         137.5571  139.3222  155.1042 C.3     1  UNL1        0.4186
     36 F         136.9834  138.2475  154.2290 F       1  UNL1       -0.1659
     37 F         138.9021  138.6619  155.0335 F       1  UNL1       -0.1659
     38 F         136.2120  139.9824  155.1748 F       1  UNL1       -0.1659
@<TRIPOS>BOND
     1     8     9    2
     2     9     7    1
     3     7     1    1
     4     1     2    1
     5     2     3    1
     6     3     4    1
     7     4    23    1
     8    23    24    1
     9    24    25   ar
    10    25    26   ar
    11    26    27   ar
    12    27    29    1
    13    29    30   ar
    14    30    31   ar
    15    31    32   ar
    16    32    35    1
    17    35    36    1
    18    35    37    1
    19    35    38    1
    20    32    33   ar
    21    33    34   ar
    22    27    28   ar
    23     4     5    1
    24     5     6    1
    25     9    10   am
    26    10    11    1
    27    11    12    1
    28    12    13    1
    29    13    14    1
    30    14    16    1
    31    16    17    2
    32    16    18   am
    33    18    19    1
    34    19    20    1
    35    20    21    1
    36    21    22    1
    37    14    15    1
    38     6     1    1
    39    15    10    1
    40    28    24   ar
    41    22    18    1
    42    34    29   ar
@<TRIPOS>MOLECULE
*****
 38 42 0 0 0
SMALL
GASTEIGER

@<TRIPOS>ATOM
      1 C         141.5851  144.6533  159.4115 C.3     1  UNL1        0.0118
      2 C         141.5783  144.8003  160.9042 C.3     1  UNL1        0.0179
      3 C         142.5435  144.0128  161.7397 C.3     1  UNL1        0.0724
      4 N         143.5154  143.0782  161.0826 N.3     1  UNL1       -0.2689
      5 C         143.5221  142.9311  159.5898 C.3     1  UNL1        0.0724
      6 C         142.5570  143.7187  158.7543 C.3     1  UNL1        0.0179
      7 C         140.6199  145.4409  158.5759 C.3     1  UNL1        0.0854
      8 O         139.7792  145.4089  156.1178 O.2     1  UNL1       -0.2749
      9 C         139.8610  144.7673  157.4712 C.2     1  UNL1        0.2256
     10 N         139.1839  143.4521  157.7199 N.am    1  UNL1       -0.2790
     11 C         138.4250  142.7785  156.6152 C.3     1  UNL1        0.0934
     12 C         137.7480  141.4633  156.8639 C.3     1  UNL1        0.0221
     13 C         137.8298  140.8218  158.2173 C.3     1  UNL1        0.0126
     14 C         138.5886  141.4953  159.3220 C.3     1  UNL1        0.0965
     15 C         139.2657  142.8105  159.0733 C.3     1  UNL1        0.1024
     16 C         138.6704  140.8538  160.6754 C.2     1  UNL1        0.2268
     17 O         139.0825  139.4170  160.8007 O.2     1  UNL1       -0.2748
     18 N         138.3401  141.6490  161.9036 N.am    1  UNL1       -0.2795
     19 C         138.3767  141.1457  163.3162 C.3     1  UNL1        0.0935
     20 C         137.9744  142.2728  164.2205 C.3     1  UNL1        0.0233
     21 C         137.6893  143.4728  163.3667 C.3     1  UNL1        0.0233
     22 C         137.9153  143.0872  161.9349 C.3     1  UNL1        0.0935
     23 C         144.4806  142.2906  161.9182 C.3     1  UNL1        0.1007
     24 C         143.9694  141.2890  162.9109 C.ar    1  UNL1        0.0129
     25 C         144.7987  140.2900  163.6621 C.ar    1  UNL1        0.0176
     26 C         143.8811  139.4941  164.5421 C.ar    1  UNL1        0.0799
     27 N         142.4847  140.0012  164.3348 N.ar    1  UNL1       -0.3038
     28 C         142.5393  141.1105  163.3267 C.ar    1  UNL1        0.0772
     29 C         141.2504  139.4889  165.0161 C.ar    1  UNL1        0.0640
     30 C         140.6799  140.2282  166.1899 C.ar    1  UNL1        0.0175
     31 C         139.4457  139.7160  166.8711 C.ar    1  UNL1        0.0053
     32 C         138.7819  138.4643  166.3786 C.ar    1  UNL1        0.0715
     33 C         139.3523  137.7249  165.2048 C.ar    1  UNL1        0.0053
     34 C         140.5866  138.2372  164.5236 C.ar    1  UNL1        0.0175
     35 C         137.5476  137.9521  167.0599 C.3     1  UNL1        0.4186
     36 F         136.3133  137.4399  167.7412 F       1  UNL1       -0.1659
     37 F         137.5887  136.7189  166.2070 F       1  UNL1       -0.1659
     38 F         137.5065  139.1853  167.9129 F       1  UNL1       -0.1659
@<TRIPOS>BOND
     1     8     9    2
     2     9     7    1
     3     7     1    1
     4     1     2    1
     5     2     3    1
     6     3     4    1
     7     4    23    1
     8    23    24    1
     9    24    25   ar
    10    25    26   ar
    11    26    27   ar
    12    27    29    1
    13    29    30   ar
    14    30    31   ar
    15    31    32   ar
    16    32    35    1
    17    35    36    1
    18    35    37    1
    19    35    38    1
    20    32    33   ar
    21    33    34   ar
    22    27    28   ar
    23     4     5    1
    24     5     6    1
    25     9    10   am
    26    10    11    1
    27    11    12    1
    28    12    13    1
    29    13    14    1
    30    14    16    1
    31    16    17    2
    32    16    18   am
    33    18    19    1
    34    19    20    1
    35    20    21    1
    36    21    22    1
    37    14    15    1
    38     6     1    1
    39    15    10    1
    40    28    24   ar
    41    22    18    1
    42    34    29   ar
@<TRIPOS>MOLECULE
*****
 38 42 0 0 0
SMALL
GASTEIGER

@<TRIPOS>ATOM
      1 C         138.4703  141.6393  160.9386 C.3     1  UNL1        0.0118
      2 C         138.5474  142.4819  159.7001 C.3     1  UNL1        0.0179
      3 C         138.7723  141.8349  158.3657 C.3     1  UNL1        0.0724
      4 N         138.9201  140.3453  158.2698 N.3     1  UNL1       -0.2689
      5 C         138.8429  139.5027  159.5083 C.3     1  UNL1        0.0724
      6 C         138.6180  140.1497  160.8427 C.3     1  UNL1        0.0179
      7 C         138.2454  142.2863  162.2732 C.3     1  UNL1        0.0854
      8 O         138.0646  144.8712  162.4620 O.2     1  UNL1       -0.2749
      9 C         138.8738  143.6136  162.5786 C.2     1  UNL1        0.2256
     10 N         140.3116  143.6833  163.0006 N.am    1  UNL1       -0.2790
     11 C         140.9401  145.0106  163.3060 C.3     1  UNL1        0.0934
     12 C         142.3778  145.0803  163.7280 C.3     1  UNL1        0.0221
     13 C         143.1870  143.8227  163.8446 C.3     1  UNL1        0.0126
     14 C         142.5585  142.4954  163.5392 C.3     1  UNL1        0.0965
     15 C         141.1209  142.4257  163.1172 C.3     1  UNL1        0.1024
     16 C         143.3678  141.2378  163.6557 C.2     1  UNL1        0.2268
     17 O         144.3404  140.8690  162.5751 O.2     1  UNL1       -0.2748
     18 N         143.2044  140.3491  164.8530 N.am    1  UNL1       -0.2795
     19 C         143.9406  139.0670  165.1064 C.3     1  UNL1        0.0935
     20 C         143.4673  138.5119  166.4170 C.3     1  UNL1        0.0233
     21 C         142.4385  139.4509  166.9736 C.3     1  UNL1        0.0233
     22 C         142.2760  140.5863  166.0070 C.3     1  UNL1        0.0935
     23 C         139.1449  139.6983  156.9352 C.3     1  UNL1        0.1007
     24 C         140.3546  138.8399  156.7123 C.ar    1  UNL1        0.0129
     25 C         141.7476  139.3304  156.4500 C.ar    1  UNL1        0.0176
     26 C         142.6377  138.1339  156.2881 C.ar    1  UNL1        0.0799
     27 N         141.7947  136.9038  156.4502 N.ar    1  UNL1       -0.3038
     28 C         140.3837  137.3401  156.7123 C.ar    1  UNL1        0.0772
     29 C         142.2779  135.4863  156.3650 C.ar    1  UNL1        0.0640
     30 C         143.3114  134.9870  157.3305 C.ar    1  UNL1        0.0175
     31 C         143.7946  133.5695  157.2454 C.ar    1  UNL1        0.0053
     32 C         143.2442  132.6514  156.1948 C.ar    1  UNL1        0.0715
     33 C         142.2106  133.1507  155.2292 C.ar    1  UNL1        0.0053
     34 C         141.7274  134.5681  155.3143 C.ar    1  UNL1        0.0175
     35 C         143.7274  131.2339  156.1097 C.3     1  UNL1        0.4186
     36 F         144.2105  129.8164  156.0245 F       1  UNL1       -0.1659
     37 F         145.1274  131.7245  155.8878 F       1  UNL1       -0.1659
     38 F         142.3273  130.7433  156.3315 F       1  UNL1       -0.1659
@<TRIPOS>BOND
     1     8     9    2
     2     9     7    1
     3     7     1    1
     4     1     2    1
     5     2     3    1
     6     3     4    1
     7     4    23    1
     8    23    24    1
     9    24    25   ar
    10    25    26   ar
    11    26    27   ar
    12    27    29    1
    13    29    30   ar
    14    30    31   ar
    15    31    32   ar
    16    32    35    1
    17    35    36    1
    18    35    37    1
    19    35    38    1
    20    32    33   ar
    21    33    34   ar
    22    27    28   ar
    23     4     5    1
    24     5     6    1
    25     9    10   am
    26    10    11    1
    27    11    12    1
    28    12    13    1
    29    13    14    1
    30    14    16    1
    31    16    17    2
    32    16    18   am
    33    18    19    1
    34    19    20    1
    35    20    21    1
    36    21    22    1
    37    14    15    1
    38     6     1    1
    39    15    10    1
    40    28    24   ar
    41    22    18    1
    42    34    29   ar
@<TRIPOS>MOLECULE
*****
 38 42 0 0 0
SMALL
GASTEIGER

@<TRIPOS>ATOM
      1 C         142.8384  143.5704  159.1419 C.3     1  UNL1        0.0118
      2 C         142.4070  143.9650  160.5233 C.3     1  UNL1        0.0179
      3 C         143.1777  143.4822  161.7161 C.3     1  UNL1        0.0724
      4 N         144.3797  142.6049  161.5276 N.3     1  UNL1       -0.2689
      5 C         144.8110  142.2104  160.1462 C.3     1  UNL1        0.0724
      6 C         144.0404  142.6931  158.9534 C.3     1  UNL1        0.0179
      7 C         142.0677  144.0531  157.9489 C.3     1  UNL1        0.0854
      8 O         140.2760  142.2053  158.3032 O.2     1  UNL1       -0.2749
      9 C         140.7123  143.4837  157.6511 C.2     1  UNL1        0.2256
     10 N         139.7932  144.1927  156.7010 N.am    1  UNL1       -0.2790
     11 C         138.4378  143.6233  156.4031 C.3     1  UNL1        0.0934
     12 C         137.5188  144.3324  155.4531 C.3     1  UNL1        0.0221
     13 C         137.9551  145.6108  154.8009 C.3     1  UNL1        0.0126
     14 C         139.3104  146.1802  155.0988 C.3     1  UNL1        0.0965
     15 C         140.2295  145.4712  156.0488 C.3     1  UNL1        0.1024
     16 C         139.7467  147.4586  154.4467 C.2     1  UNL1        0.2268
     17 O         140.6113  147.4186  153.2216 O.2     1  UNL1       -0.2748
     18 N         139.3184  148.7770  155.0196 N.am    1  UNL1       -0.2795
     19 C         139.6742  150.1304  154.4795 C.3     1  UNL1        0.0935
     20 C         139.0348  151.1634  155.3592 C.3     1  UNL1        0.0233
     21 C         138.2837  150.4484  156.4431 C.3     1  UNL1        0.0233
     22 C         138.4590  148.9735  156.2331 C.3     1  UNL1        0.0935
     23 C         145.1504  142.1222  162.7206 C.3     1  UNL1        0.1007
     24 C         144.4931  141.2214  163.7238 C.ar    1  UNL1        0.0129
     25 C         144.8911  139.8090  164.0345 C.ar    1  UNL1        0.0176
     26 C         143.9664  139.2895  165.0952 C.ar    1  UNL1        0.0799
     27 N         142.9968  140.3809  165.4399 N.ar    1  UNL1       -0.3038
     28 C         143.3224  141.5748  164.5924 C.ar    1  UNL1        0.0772
     29 C         141.8952  140.2936  166.4542 C.ar    1  UNL1        0.0640
     30 C         140.5234  139.8543  166.0356 C.ar    1  UNL1        0.0175
     31 C         139.4218  139.7670  167.0499 C.ar    1  UNL1        0.0053
     32 C         139.6919  140.1190  168.4827 C.ar    1  UNL1        0.0715
     33 C         141.0636  140.5583  168.9013 C.ar    1  UNL1        0.0053
     34 C         142.1653  140.6456  167.8871 C.ar    1  UNL1        0.0175
     35 C         138.5902  140.0317  169.4969 C.3     1  UNL1        0.4186
     36 F         137.4885  139.9444  170.5112 F       1  UNL1       -0.1659
     37 F         139.3765  140.9080  170.4264 F       1  UNL1       -0.1659
     38 F         137.8038  139.1555  168.5675 F       1  UNL1       -0.1659
@<TRIPOS>BOND
     1     8     9    2
     2     9     7    1
     3     7     1    1
     4     1     2    1
     5     2     3    1
     6     3     4    1
     7     4    23    1
     8    23    24    1
     9    24    25   ar
    10    25    26   ar
    11    26    27   ar
    12    27    29    1
    13    29    30   ar
    14    30    31   ar
    15    31    32   ar
    16    32    35    1
    17    35    36    1
    18    35    37    1
    19    35    38    1
    20    32    33   ar
    21    33    34   ar
    22    27    28   ar
    23     4     5    1
    24     5     6    1
    25     9    10   am
    26    10    11    1
    27    11    12    1
    28    12    13    1
    29    13    14    1
    30    14    16    1
    31    16    17    2
    32    16    18   am
    33    18    19    1
    34    19    20    1
    35    20    21    1
    36    21    22    1
    37    14    15    1
    38     6     1    1
    39    15    10    1
    40    28    24   ar
    41    22    18    1
    42    34    29   ar
