@<TRIPOS>MOLECULE
*****
 28 30 0 0 0
SMALL
GASTEIGER

@<TRIPOS>ATOM
      1 N         138.4977  139.1105  162.8497 N.3     1  UNL1       -0.2724
      2 C         138.9462  137.8886  163.5954 C.3     1  UNL1        0.0758
      3 C         138.9316  137.8778  165.0952 C.3     1  UNL1        0.0609
      4 C         138.4686  139.0888  165.8495 C.3     1  UNL1        0.1687
      5 C         138.0202  140.3107  165.1040 C.3     1  UNL1        0.0609
      6 C         138.0347  140.3215  163.6041 C.3     1  UNL1        0.0758
      7 C         138.5123  139.1213  161.3499 C.3     1  UNL1        0.0721
      8 N         140.6918  142.3825  159.1444 N.3     1  UNL1       -0.2680
      9 C         141.4619  141.2657  159.7842 C.3     1  UNL1        0.0725
     10 C         140.7354  140.1786  160.5194 C.3     1  UNL1        0.0188
     11 C         139.2388  140.2084  160.6147 C.3     1  UNL1        0.0188
     12 C         138.4686  141.3252  159.9748 C.3     1  UNL1        0.0188
     13 C         139.1951  142.4123  159.2397 C.3     1  UNL1        0.0725
     14 C         141.4183  143.4696  158.4092 C.3     1  UNL1        0.1145
     15 O         142.2172  145.9415  158.3730 O.co2   1  UNL1       -0.5477
     16 C         141.8617  144.7022  159.1398 C.2     1  UNL1        0.0665
     17 O         141.9497  144.6957  160.6372 O.co2   1  UNL1       -0.5477
     18 O         138.4541  139.0779  167.3495 O.3     1  UNL1       -0.4790
     19 C         139.4101  139.9439  168.1151 C.ar    1  UNL1        0.1392
     20 C         139.0960  140.3416  169.5269 C.ar    1  UNL1        0.0367
     21 C         140.0520  141.2075  170.2925 C.ar    1  UNL1        0.0021
     22 C         141.3222  141.6757  169.6463 C.ar    1  UNL1        0.0177
     23 C         141.6363  141.2780  168.2345 C.ar    1  UNL1        0.0590
     24 CL        142.9064  141.7461  167.5883 Cl      1  UNL1       -0.0824
     25 C         140.6802  140.4120  167.4689 C.ar    1  UNL1        0.0480
     26 C         142.2783  142.5416  170.4119 C.3     1  UNL1        0.1644
     27 O         142.2897  142.5025  171.9113 O.3     1  UNL1       -0.3772
     28 H         141.4496  142.8493  172.2502 H       1  UNL1        0.2109
@<TRIPOS>UNITY_ATOM_ATTR
15 1
charge -1
@<TRIPOS>BOND
     1    15    16   ar
     2    16    17   ar
     3    16    14    1
     4    14     8    1
     5     8     9    1
     6     9    10    1
     7    10    11    1
     8    11     7    1
     9     7     1    1
    10     1     2    1
    11     2     3    1
    12     3     4    1
    13     4    18    1
    14    18    19    1
    15    19    20   ar
    16    20    21   ar
    17    21    22   ar
    18    22    26    1
    19    26    27    1
    20    22    23   ar
    21    23    24    1
    22    23    25   ar
    23     4     5    1
    24     5     6    1
    25    11    12    1
    26    12    13    1
    27    13     8    1
    28     6     1    1
    29    25    19   ar
    30    27    28    1
@<TRIPOS>MOLECULE
*****
 28 30 0 0 0
SMALL
GASTEIGER

@<TRIPOS>ATOM
      1 N         143.5949  139.0072  164.7798 N.3     1  UNL1       -0.2724
      2 C         142.7001  138.3906  163.7457 C.3     1  UNL1        0.0758
      3 C         142.8604  138.7576  162.3002 C.3     1  UNL1        0.0609
      4 C         143.9155  139.7412  161.8887 C.3     1  UNL1        0.1687
      5 C         144.8103  140.3577  162.9227 C.3     1  UNL1        0.0609
      6 C         144.6500  139.9907  164.3683 C.3     1  UNL1        0.0758
      7 C         143.4345  138.6402  166.2253 C.3     1  UNL1        0.0721
      8 N         140.5241  140.8976  168.8105 N.3     1  UNL1       -0.2680
      9 C         140.4249  140.9856  167.3164 C.3     1  UNL1        0.0725
     10 C         141.3950  140.2331  166.4546 C.3     1  UNL1        0.0188
     11 C         142.4644  139.3926  167.0870 C.3     1  UNL1        0.0188
     12 C         142.5636  139.3046  168.5811 C.3     1  UNL1        0.0188
     13 C         141.5935  140.0571  169.4428 C.3     1  UNL1        0.0725
     14 C         139.5540  141.6501  169.6722 C.3     1  UNL1        0.1145
     15 O         140.0049  144.1200  170.3405 O.co2   1  UNL1       -0.5477
     16 C         140.0564  142.6563  170.6647 C.2     1  UNL1        0.0665
     17 O         140.6103  142.1989  171.9815 O.co2   1  UNL1       -0.5477
     18 O         144.0758  140.1082  160.4431 O.3     1  UNL1       -0.4790
     19 C         143.4732  141.3785  159.9205 C.ar    1  UNL1        0.1392
     20 C         143.4150  141.6286  158.4426 C.ar    1  UNL1        0.0367
     21 C         142.8124  142.8989  157.9201 C.ar    1  UNL1        0.0021
     22 C         142.2679  143.9192  158.8754 C.ar    1  UNL1        0.0177
     23 C         142.3260  143.6691  160.3532 C.ar    1  UNL1        0.0590
     24 CL        141.7815  144.6893  161.3085 Cl      1  UNL1       -0.0824
     25 C         142.9287  142.3987  160.8758 C.ar    1  UNL1        0.0480
     26 C         141.6653  145.1895  158.3528 C.3     1  UNL1        0.1644
     27 O         142.5535  146.3098  157.8991 O.3     1  UNL1       -0.3772
     28 H         143.0426  146.6627  158.6588 H       1  UNL1        0.2109
@<TRIPOS>UNITY_ATOM_ATTR
15 1
charge -1
@<TRIPOS>BOND
     1    15    16   ar
     2    16    17   ar
     3    16    14    1
     4    14     8    1
     5     8     9    1
     6     9    10    1
     7    10    11    1
     8    11     7    1
     9     7     1    1
    10     1     2    1
    11     2     3    1
    12     3     4    1
    13     4    18    1
    14    18    19    1
    15    19    20   ar
    16    20    21   ar
    17    21    22   ar
    18    22    26    1
    19    26    27    1
    20    22    23   ar
    21    23    24    1
    22    23    25   ar
    23     4     5    1
    24     5     6    1
    25    11    12    1
    26    12    13    1
    27    13     8    1
    28     6     1    1
    29    25    19   ar
    30    27    28    1
@<TRIPOS>MOLECULE
*****
 28 30 0 0 0
SMALL
GASTEIGER

@<TRIPOS>ATOM
      1 N         138.2869  139.8082  164.6376 N.3     1  UNL1       -0.2724
      2 C         138.0059  141.2794  164.7209 C.3     1  UNL1        0.0758
      3 C         137.8210  142.0798  163.4659 C.3     1  UNL1        0.0609
      4 C         137.9169  141.4092  162.1276 C.3     1  UNL1        0.1687
      5 C         138.1978  139.9381  162.0443 C.3     1  UNL1        0.0609
      6 C         138.3828  139.1376  163.2993 C.3     1  UNL1        0.0758
      7 C         138.4718  139.0078  165.8926 C.3     1  UNL1        0.0721
      8 N         141.2420  140.4858  169.1162 N.3     1  UNL1       -0.2680
      9 C         141.7767  140.1861  167.7472 C.3     1  UNL1        0.0725
     10 C         140.8533  139.6934  166.6727 C.3     1  UNL1        0.0188
     11 C         139.3952  139.5005  166.9672 C.3     1  UNL1        0.0188
     12 C         138.8605  139.8002  168.3362 C.3     1  UNL1        0.0188
     13 C         139.7839  140.2928  169.4107 C.3     1  UNL1        0.0725
     14 C         142.1654  140.9784  170.1908 C.3     1  UNL1        0.1145
     15 O         142.5323  143.4855  170.7654 O.co2   1  UNL1       -0.5477
     16 C         141.8034  142.1941  170.9915 C.2     1  UNL1        0.0665
     17 O         140.7124  142.1184  172.0182 O.co2   1  UNL1       -0.5477
     18 O         137.7319  142.2097  160.8726 O.3     1  UNL1       -0.4790
     19 C         138.9277  142.7363  160.1358 C.ar    1  UNL1        0.1392
     20 C         138.8445  142.9985  158.6613 C.ar    1  UNL1        0.0367
     21 C         140.0402  143.5252  157.9245 C.ar    1  UNL1        0.0021
     22 C         141.3192  143.7896  158.6623 C.ar    1  UNL1        0.0177
     23 C         141.4024  143.5274  160.1369 C.ar    1  UNL1        0.0590
     24 CL        142.6813  143.7919  160.8747 Cl      1  UNL1       -0.0824
     25 C         140.2066  143.0008  160.8736 C.ar    1  UNL1        0.0480
     26 C         142.5149  144.3163  157.9256 C.3     1  UNL1        0.1644
     27 O         142.6839  145.7937  157.7288 O.3     1  UNL1       -0.3772
     28 H         141.9785  146.1258  157.1518 H       1  UNL1        0.2109
@<TRIPOS>UNITY_ATOM_ATTR
15 1
charge -1
@<TRIPOS>BOND
     1    15    16   ar
     2    16    17   ar
     3    16    14    1
     4    14     8    1
     5     8     9    1
     6     9    10    1
     7    10    11    1
     8    11     7    1
     9     7     1    1
    10     1     2    1
    11     2     3    1
    12     3     4    1
    13     4    18    1
    14    18    19    1
    15    19    20   ar
    16    20    21   ar
    17    21    22   ar
    18    22    26    1
    19    26    27    1
    20    22    23   ar
    21    23    24    1
    22    23    25   ar
    23     4     5    1
    24     5     6    1
    25    11    12    1
    26    12    13    1
    27    13     8    1
    28     6     1    1
    29    25    19   ar
    30    27    28    1
@<TRIPOS>MOLECULE
*****
 28 30 0 0 0
SMALL
GASTEIGER

@<TRIPOS>ATOM
      1 N         138.6691  138.6745  163.0372 N.3     1  UNL1       -0.2724
      2 C         138.2157  139.9737  163.6343 C.3     1  UNL1        0.0758
      3 C         138.1052  140.1168  165.1233 C.3     1  UNL1        0.0609
      4 C         138.4481  138.9607  166.0154 C.3     1  UNL1        0.1687
      5 C         138.9016  137.6615  165.4184 C.3     1  UNL1        0.0609
      6 C         139.0121  137.5184  163.9293 C.3     1  UNL1        0.0758
      7 C         138.7796  138.5314  161.5482 C.3     1  UNL1        0.0721
      8 N         142.5305  139.8399  159.4342 N.3     1  UNL1       -0.2680
      9 C         141.3079  139.4842  158.6413 C.3     1  UNL1        0.0725
     10 C         140.0576  139.0481  159.3460 C.3     1  UNL1        0.0188
     11 C         140.0299  138.9676  160.8436 C.3     1  UNL1        0.0188
     12 C         141.2525  139.3233  161.6364 C.3     1  UNL1        0.0188
     13 C         142.5028  139.7595  160.9318 C.3     1  UNL1        0.0725
     14 C         143.7807  140.2761  158.7296 C.3     1  UNL1        0.1145
     15 O         143.6352  141.4216  156.4021 O.co2   1  UNL1       -0.5477
     16 C         143.8660  140.1950  157.2342 C.2     1  UNL1        0.0665
     17 O         144.1823  138.8873  156.5709 O.co2   1  UNL1       -0.5477
     18 O         138.3376  139.1038  167.5045 O.3     1  UNL1       -0.4790
     19 C         139.3378  139.9327  168.2546 C.ar    1  UNL1        0.1392
     20 C         139.0778  140.3116  169.6824 C.ar    1  UNL1        0.0367
     21 C         140.0780  141.1405  170.4325 C.ar    1  UNL1        0.0021
     22 C         141.3383  141.5904  169.7547 C.ar    1  UNL1        0.0177
     23 C         141.5983  141.2114  168.3268 C.ar    1  UNL1        0.0590
     24 CL        142.8585  141.6613  167.6490 Cl      1  UNL1       -0.0824
     25 C         140.5980  140.3825  167.5768 C.ar    1  UNL1        0.0480
     26 C         142.3384  142.4192  170.5047 C.3     1  UNL1        0.1644
     27 O         142.2538  142.5268  171.9985 O.3     1  UNL1       -0.3772
     28 H         141.4397  142.9939  172.2434 H       1  UNL1        0.2109
@<TRIPOS>UNITY_ATOM_ATTR
15 1
charge -1
@<TRIPOS>BOND
     1    15    16   ar
     2    16    17   ar
     3    16    14    1
     4    14     8    1
     5     8     9    1
     6     9    10    1
     7    10    11    1
     8    11     7    1
     9     7     1    1
    10     1     2    1
    11     2     3    1
    12     3     4    1
    13     4    18    1
    14    18    19    1
    15    19    20   ar
    16    20    21   ar
    17    21    22   ar
    18    22    26    1
    19    26    27    1
    20    22    23   ar
    21    23    24    1
    22    23    25   ar
    23     4     5    1
    24     5     6    1
    25    11    12    1
    26    12    13    1
    27    13     8    1
    28     6     1    1
    29    25    19   ar
    30    27    28    1
@<TRIPOS>MOLECULE
*****
 28 30 0 0 0
SMALL
GASTEIGER

@<TRIPOS>ATOM
      1 N         143.1304  138.6994  162.7076 N.3     1  UNL1       -0.2724
      2 C         142.0562  138.0375  163.5188 C.3     1  UNL1        0.0758
      3 C         142.1694  137.9859  165.0136 C.3     1  UNL1        0.0609
      4 C         143.3569  138.5962  165.6973 C.3     1  UNL1        0.1687
      5 C         144.4311  139.2581  164.8862 C.3     1  UNL1        0.0609
      6 C         144.3179  139.3097  163.3913 C.3     1  UNL1        0.0758
      7 C         143.0171  138.7510  161.2128 C.3     1  UNL1        0.0721
      8 N         141.4920  142.4751  159.1991 N.3     1  UNL1       -0.2680
      9 C         142.3851  141.5302  158.4512 C.3     1  UNL1        0.0725
     10 C         142.8935  140.2888  159.1224 C.3     1  UNL1        0.0188
     11 C         142.5088  139.9924  160.5416 C.3     1  UNL1        0.0188
     12 C         141.6157  140.9373  161.2895 C.3     1  UNL1        0.0188
     13 C         141.1073  142.1787  160.6183 C.3     1  UNL1        0.0725
     14 C         140.9836  143.7165  158.5279 C.3     1  UNL1        0.1145
     15 O         142.3055  145.9416  158.3001 O.co2   1  UNL1       -0.5477
     16 C         141.3574  145.0662  159.0650 C.2     1  UNL1        0.0665
     17 O         140.7830  145.5407  160.3669 O.co2   1  UNL1       -0.5477
     18 O         143.4701  138.5446  167.1922 O.3     1  UNL1       -0.4790
     19 C         142.6415  139.4642  168.0393 C.ar    1  UNL1        0.1392
     20 C         142.4508  139.1719  169.4981 C.ar    1  UNL1        0.0367
     21 C         141.6222  140.0916  170.3452 C.ar    1  UNL1        0.0021
     22 C         140.9843  141.3036  169.7335 C.ar    1  UNL1        0.0177
     23 C         141.1750  141.5959  168.2747 C.ar    1  UNL1        0.0590
     24 CL        140.5371  142.8078  167.6630 Cl      1  UNL1       -0.0824
     25 C         142.0036  140.6762  167.4276 C.ar    1  UNL1        0.0480
     26 C         140.1556  142.2232  170.5806 C.3     1  UNL1        0.1644
     27 O         140.3776  142.2810  172.0630 O.3     1  UNL1       -0.3772
     28 H         140.1331  141.4304  172.4599 H       1  UNL1        0.2109
@<TRIPOS>UNITY_ATOM_ATTR
15 1
charge -1
@<TRIPOS>BOND
     1    15    16   ar
     2    16    17   ar
     3    16    14    1
     4    14     8    1
     5     8     9    1
     6     9    10    1
     7    10    11    1
     8    11     7    1
     9     7     1    1
    10     1     2    1
    11     2     3    1
    12     3     4    1
    13     4    18    1
    14    18    19    1
    15    19    20   ar
    16    20    21   ar
    17    21    22   ar
    18    22    26    1
    19    26    27    1
    20    22    23   ar
    21    23    24    1
    22    23    25   ar
    23     4     5    1
    24     5     6    1
    25    11    12    1
    26    12    13    1
    27    13     8    1
    28     6     1    1
    29    25    19   ar
    30    27    28    1
@<TRIPOS>MOLECULE
*****
 28 30 0 0 0
SMALL
GASTEIGER

@<TRIPOS>ATOM
      1 N         138.3657  138.9842  165.5147 N.3     1  UNL1       -0.2724
      2 C         138.8683  137.7253  164.8722 C.3     1  UNL1        0.0758
      3 C         139.0057  137.6477  163.3805 C.3     1  UNL1        0.0609
      4 C         138.6405  138.8290  162.5313 C.3     1  UNL1        0.1687
      5 C         138.1379  140.0878  163.1737 C.3     1  UNL1        0.0609
      6 C         138.0005  140.1654  164.6654 C.3     1  UNL1        0.0758
      7 C         138.2283  139.0617  167.0063 C.3     1  UNL1        0.0721
      8 N         141.4030  141.1050  169.4551 N.3     1  UNL1       -0.2680
      9 C         141.6538  140.7971  168.0086 C.3     1  UNL1        0.0725
     10 C         140.5956  140.1160  167.1924 C.3     1  UNL1        0.0188
     11 C         139.2866  139.7428  167.8226 C.3     1  UNL1        0.0188
     12 C         139.0358  140.0507  169.2690 C.3     1  UNL1        0.0188
     13 C         140.0940  140.7318  170.0853 C.3     1  UNL1        0.0725
     14 C         142.4612  141.7861  170.2713 C.3     1  UNL1        0.1145
     15 O         141.1381  144.0201  170.1772 O.co2   1  UNL1       -0.5477
     16 C         142.3945  143.2670  170.5004 C.2     1  UNL1        0.0665
     17 O         143.5841  143.9949  171.0526 O.co2   1  UNL1       -0.5477
     18 O         138.7779  138.7514  161.0396 O.3     1  UNL1       -0.4790
     19 C         140.0651  139.1539  160.3830 C.ar    1  UNL1        0.1392
     20 C         140.2724  138.8987  158.9195 C.ar    1  UNL1        0.0367
     21 C         141.5596  139.3012  158.2629 C.ar    1  UNL1        0.0021
     22 C         142.6396  139.9589  159.0699 C.ar    1  UNL1        0.0177
     23 C         142.4323  140.2141  160.5334 C.ar    1  UNL1        0.0590
     24 CL        143.5122  140.8717  161.3404 Cl      1  UNL1       -0.0824
     25 C         141.1450  139.8116  161.1900 C.ar    1  UNL1        0.0480
     26 C         143.9268  140.3613  158.4134 C.3     1  UNL1        0.1644
     27 O         143.9090  141.2826  157.2298 O.3     1  UNL1       -0.3772
     28 H         143.4768  140.8405  156.4823 H       1  UNL1        0.2109
@<TRIPOS>UNITY_ATOM_ATTR
15 1
charge -1
@<TRIPOS>BOND
     1    15    16   ar
     2    16    17   ar
     3    16    14    1
     4    14     8    1
     5     8     9    1
     6     9    10    1
     7    10    11    1
     8    11     7    1
     9     7     1    1
    10     1     2    1
    11     2     3    1
    12     3     4    1
    13     4    18    1
    14    18    19    1
    15    19    20   ar
    16    20    21   ar
    17    21    22   ar
    18    22    26    1
    19    26    27    1
    20    22    23   ar
    21    23    24    1
    22    23    25   ar
    23     4     5    1
    24     5     6    1
    25    11    12    1
    26    12    13    1
    27    13     8    1
    28     6     1    1
    29    25    19   ar
    30    27    28    1
@<TRIPOS>MOLECULE
*****
 28 30 0 0 0
SMALL
GASTEIGER

@<TRIPOS>ATOM
      1 N         138.4269  141.1513  162.3167 N.3     1  UNL1       -0.2724
      2 C         139.5214  140.2707  161.7907 C.3     1  UNL1        0.0758
      3 C         140.2876  140.6765  160.5667 C.3     1  UNL1        0.0609
      4 C         139.9592  141.9628  159.8685 C.3     1  UNL1        0.1687
      5 C         138.8647  142.8435  160.3944 C.3     1  UNL1        0.0609
      6 C         138.0985  142.4377  161.6185 C.3     1  UNL1        0.0758
      7 C         137.6607  140.7456  163.5407 C.3     1  UNL1        0.0721
      8 N         139.7682  140.3967  167.5014 N.3     1  UNL1       -0.2680
      9 C         139.9746  141.6117  166.6464 C.3     1  UNL1        0.0725
     10 C         139.2722  141.7280  165.3262 C.3     1  UNL1        0.0188
     11 C         138.3632  140.6293  164.8610 C.3     1  UNL1        0.0188
     12 C         138.1567  139.4143  165.7159 C.3     1  UNL1        0.0188
     13 C         138.8592  139.2980  167.0362 C.3     1  UNL1        0.0725
     14 C         140.4706  140.2804  168.8216 C.3     1  UNL1        0.1145
     15 O         139.6429  142.0259  170.5590 O.co2   1  UNL1       -0.5477
     16 C         139.7400  140.6040  170.0910 C.2     1  UNL1        0.0665
     17 O         139.1064  139.5057  170.8925 O.co2   1  UNL1       -0.5477
     18 O         140.7254  142.3686  158.6444 O.3     1  UNL1       -0.4790
     19 C         140.3507  143.6188  157.9052 C.ar    1  UNL1        0.1392
     20 C         141.0283  144.9160  158.2337 C.ar    1  UNL1        0.0367
     21 C         140.6535  146.1662  157.4944 C.ar    1  UNL1        0.0021
     22 C         139.6011  146.1192  156.4266 C.ar    1  UNL1        0.0177
     23 C         138.9234  144.8219  156.0981 C.ar    1  UNL1        0.0590
     24 CL        137.8710  144.7748  155.0303 Cl      1  UNL1       -0.0824
     25 C         139.2982  143.5717  156.8374 C.ar    1  UNL1        0.0480
     26 C         139.2263  147.3694  155.6873 C.3     1  UNL1        0.1644
     27 O         138.4757  148.4606  156.3915 O.3     1  UNL1       -0.3772
     28 H         137.5912  148.1422  156.6308 H       1  UNL1        0.2109
@<TRIPOS>UNITY_ATOM_ATTR
15 1
charge -1
@<TRIPOS>BOND
     1    15    16   ar
     2    16    17   ar
     3    16    14    1
     4    14     8    1
     5     8     9    1
     6     9    10    1
     7    10    11    1
     8    11     7    1
     9     7     1    1
    10     1     2    1
    11     2     3    1
    12     3     4    1
    13     4    18    1
    14    18    19    1
    15    19    20   ar
    16    20    21   ar
    17    21    22   ar
    18    22    26    1
    19    26    27    1
    20    22    23   ar
    21    23    24    1
    22    23    25   ar
    23     4     5    1
    24     5     6    1
    25    11    12    1
    26    12    13    1
    27    13     8    1
    28     6     1    1
    29    25    19   ar
    30    27    28    1
@<TRIPOS>MOLECULE
*****
 28 30 0 0 0
SMALL
GASTEIGER

@<TRIPOS>ATOM
      1 N         143.6196  139.0298  164.8460 N.3     1  UNL1       -0.2724
      2 C         144.6218  140.0694  164.4400 C.3     1  UNL1        0.0758
      3 C         144.7468  140.4684  162.9995 C.3     1  UNL1        0.0609
      4 C         143.8696  139.8279  161.9650 C.3     1  UNL1        0.1687
      5 C         142.8674  138.7884  162.3709 C.3     1  UNL1        0.0609
      6 C         142.7424  138.3893  163.8115 C.3     1  UNL1        0.0758
      7 C         143.4946  138.6307  166.2866 C.3     1  UNL1        0.0721
      8 N         140.5637  140.7517  168.9627 N.3     1  UNL1       -0.2680
      9 C         140.4277  140.8528  167.4723 C.3     1  UNL1        0.0725
     10 C         141.4046  140.1459  166.5803 C.3     1  UNL1        0.0188
     11 C         142.5176  139.3377  167.1786 C.3     1  UNL1        0.0188
     12 C         142.6537  139.2366  168.6689 C.3     1  UNL1        0.0188
     13 C         141.6768  139.9435  169.5610 C.3     1  UNL1        0.0725
     14 C         139.5868  141.4587  169.8547 C.3     1  UNL1        0.1145
     15 O         140.6383  142.2086  172.1091 O.co2   1  UNL1       -0.5477
     16 C         140.0594  142.5505  170.7682 C.2     1  UNL1        0.0665
     17 O         139.9533  143.9844  170.3407 O.co2   1  UNL1       -0.5477
     18 O         143.9947  140.2270  160.5244 O.3     1  UNL1       -0.4790
     19 C         143.0593  141.2463  159.9446 C.ar    1  UNL1        0.1392
     20 C         143.2165  142.6955  160.2983 C.ar    1  UNL1        0.0367
     21 C         142.2812  143.7147  159.7185 C.ar    1  UNL1        0.0021
     22 C         141.1886  143.2848  158.7850 C.ar    1  UNL1        0.0177
     23 C         141.0313  141.8356  158.4313 C.ar    1  UNL1        0.0590
     24 CL        139.9388  141.4056  157.4979 Cl      1  UNL1       -0.0824
     25 C         141.9668  140.8163  159.0112 C.ar    1  UNL1        0.0480
     26 C         140.2532  144.3041  158.2052 C.3     1  UNL1        0.1644
     27 O         140.5002  145.7655  158.4356 O.3     1  UNL1       -0.3772
     28 H         140.3949  145.9665  159.3787 H       1  UNL1        0.2109
@<TRIPOS>UNITY_ATOM_ATTR
15 1
charge -1
@<TRIPOS>BOND
     1    15    16   ar
     2    16    17   ar
     3    16    14    1
     4    14     8    1
     5     8     9    1
     6     9    10    1
     7    10    11    1
     8    11     7    1
     9     7     1    1
    10     1     2    1
    11     2     3    1
    12     3     4    1
    13     4    18    1
    14    18    19    1
    15    19    20   ar
    16    20    21   ar
    17    21    22   ar
    18    22    26    1
    19    26    27    1
    20    22    23   ar
    21    23    24    1
    22    23    25   ar
    23     4     5    1
    24     5     6    1
    25    11    12    1
    26    12    13    1
    27    13     8    1
    28     6     1    1
    29    25    19   ar
    30    27    28    1
@<TRIPOS>MOLECULE
*****
 28 30 0 0 0
SMALL
GASTEIGER

@<TRIPOS>ATOM
      1 N         138.7208  140.3086  162.2281 N.3     1  UNL1       -0.2724
      2 C         139.9119  141.0950  162.6898 C.3     1  UNL1        0.0758
      3 C         140.6594  140.6718  163.9194 C.3     1  UNL1        0.0609
      4 C         140.2159  139.4620  164.6875 C.3     1  UNL1        0.1687
      5 C         139.0249  138.6756  164.2259 C.3     1  UNL1        0.0609
      6 C         138.2774  139.0989  162.9962 C.3     1  UNL1        0.0758
      7 C         137.9734  140.7319  160.9985 C.3     1  UNL1        0.0721
      8 N         139.2172  139.1778  156.9627 N.3     1  UNL1       -0.2680
      9 C         139.7134  138.5081  158.2098 C.3     1  UNL1        0.0725
     10 C         139.2988  139.0261  159.5550 C.3     1  UNL1        0.0188
     11 C         138.3880  140.2139  159.6532 C.3     1  UNL1        0.0188
     12 C         137.8918  140.8836  158.4061 C.3     1  UNL1        0.0188
     13 C         138.3064  140.3655  157.0609 C.3     1  UNL1        0.0725
     14 C         139.6319  138.6598  155.6174 C.3     1  UNL1        0.1145
     15 O         137.5791  137.1885  155.0077 O.co2   1  UNL1       -0.5477
     16 C         139.0652  137.3697  155.1033 C.2     1  UNL1        0.0665
     17 O         139.9844  136.2607  154.6846 O.co2   1  UNL1       -0.5477
     18 O         140.9634  139.0388  165.9172 O.3     1  UNL1       -0.4790
     19 C         140.9630  139.9157  167.1341 C.ar    1  UNL1        0.1392
     20 C         139.7247  140.0351  167.9721 C.ar    1  UNL1        0.0367
     21 C         139.7243  140.9120  169.1890 C.ar    1  UNL1        0.0021
     22 C         140.9623  141.6695  169.5681 C.ar    1  UNL1        0.0177
     23 C         142.2007  141.5501  168.7301 C.ar    1  UNL1        0.0590
     24 CL        143.4386  142.3075  169.1090 Cl      1  UNL1       -0.0824
     25 C         142.2010  140.6731  167.5131 C.ar    1  UNL1        0.0480
     26 C         140.9619  142.5464  170.7850 C.3     1  UNL1        0.1644
     27 O         140.6943  141.9535  172.1366 O.3     1  UNL1       -0.3772
     28 H         139.7816  141.6270  172.1715 H       1  UNL1        0.2109
@<TRIPOS>UNITY_ATOM_ATTR
15 1
charge -1
@<TRIPOS>BOND
     1    15    16   ar
     2    16    17   ar
     3    16    14    1
     4    14     8    1
     5     8     9    1
     6     9    10    1
     7    10    11    1
     8    11     7    1
     9     7     1    1
    10     1     2    1
    11     2     3    1
    12     3     4    1
    13     4    18    1
    14    18    19    1
    15    19    20   ar
    16    20    21   ar
    17    21    22   ar
    18    22    26    1
    19    26    27    1
    20    22    23   ar
    21    23    24    1
    22    23    25   ar
    23     4     5    1
    24     5     6    1
    25    11    12    1
    26    12    13    1
    27    13     8    1
    28     6     1    1
    29    25    19   ar
    30    27    28    1
