@<TRIPOS>MOLECULE
*****
 27 28 0 0 0
SMALL
GASTEIGER

@<TRIPOS>ATOM
      1 C         142.4037  139.1722  169.2806 C.ar    1  UNL1        0.1827
      2 N         142.8950  139.2535  167.8657 N.ar    1  UNL1       -0.2222
      3 C         142.0137  139.8305  166.7977 C.ar    1  UNL1        0.1700
      4 CL        142.5050  139.9118  165.3828 Cl      1  UNL1       -0.0583
      5 C         140.6412  140.3262  167.1447 C.ar    1  UNL1        0.1618
      6 N         140.1499  140.2449  168.5596 N.ar    1  UNL1       -0.2123
      7 C         141.0311  139.6679  169.6276 C.ar    1  UNL1        0.1507
      8 N         140.5398  139.5867  171.0425 N.pl3   1  UNL1       -0.3412
      9 H         139.6389  139.9120  171.2702 H       1  UNL1        0.1438
     10 H         141.1181  139.2080  171.7434 H       1  UNL1        0.1438
     11 N         139.7599  140.9032  166.0768 N.pl3   1  UNL1       -0.2913
     12 C         139.8070  142.3953  165.9300 C.3     1  UNL1        0.0922
     13 C         139.0538  143.2646  164.9670 C.3     1  UNL1        0.0215
     14 C         138.0677  142.8564  163.9131 C.3     1  UNL1        0.0018
     15 C         137.5910  141.4783  163.5617 C.3     1  UNL1        0.0018
     16 C         137.9828  140.1678  164.1776 C.3     1  UNL1        0.0215
     17 C         138.9481  139.9120  165.2969 C.3     1  UNL1        0.0922
     18 N         143.6112  137.1313  170.3417 N.am    1  UNL1       -0.1695
     19 C         143.2849  138.5953  170.3485 C.2     1  UNL1        0.3283
     20 O         143.8398  139.4824  171.4234 O.2     1  UNL1       -0.2498
     21 H         143.2470  136.5491  169.6363 H       1  UNL1        0.2546
     22 N         144.1870  135.2031  171.9850 N.pl3   1  UNL1       -0.1313
     23 C         144.4925  136.5543  171.4096 C.2     1  UNL1        0.3751
     24 N         145.6791  137.3282  171.9022 N.pl3   1  UNL1       -0.2906
     25 H         144.7653  134.8243  172.6859 H       1  UNL1        0.3060
     26 H         146.2575  136.9494  172.6031 H       1  UNL1        0.2545
     27 H         145.8797  138.2151  171.5246 H       1  UNL1        0.2545
@<TRIPOS>BOND
     1    22    23    2
     2    23    24    1
     3    23    18    1
     4    18    19   am
     5    19    20    2
     6    19     1    1
     7     1     2   ar
     8     2     3   ar
     9     3     4    1
    10     3     5   ar
    11     5    11    1
    12    11    12    1
    13    12    13    1
    14    13    14    1
    15    14    15    1
    16    15    16    1
    17    16    17    1
    18     5     6   ar
    19     6     7   ar
    20     7     8    1
    21     7     1   ar
    22    17    11    1
    23    22    25    1
    24    24    26    1
    25    24    27    1
    26    18    21    1
    27     8     9    1
    28     8    10    1
@<TRIPOS>MOLECULE
*****
 27 28 0 0 0
SMALL
GASTEIGER

@<TRIPOS>ATOM
      1 C         139.2333  140.3940  169.3720 C.ar    1  UNL1        0.1827
      2 N         139.2813  139.8517  167.9743 N.ar    1  UNL1       -0.2222
      3 C         139.9423  140.6434  166.8849 C.ar    1  UNL1        0.1700
      4 CL        139.9903  140.1011  165.4872 Cl      1  UNL1       -0.0583
      5 C         140.5552  141.9772  167.1934 C.ar    1  UNL1        0.1618
      6 N         140.5072  142.5195  168.5911 N.ar    1  UNL1       -0.2123
      7 C         139.8463  141.7279  169.6804 C.ar    1  UNL1        0.1507
      8 N         139.7983  142.2702  171.0781 N.pl3   1  UNL1       -0.3412
      9 H         140.2006  143.1457  171.2806 H       1  UNL1        0.1438
     10 H         139.3645  141.7507  171.7931 H       1  UNL1        0.1438
     11 N         141.2161  142.7688  166.1041 N.pl3   1  UNL1       -0.2913
     12 C         140.3092  143.6526  165.3000 C.3     1  UNL1        0.0922
     13 C         140.6587  144.5579  164.1561 C.3     1  UNL1        0.0215
     14 C         142.0013  144.8029  163.5339 C.3     1  UNL1        0.0018
     15 C         143.3262  144.2033  163.9018 C.3     1  UNL1        0.0018
     16 C         143.6355  143.2105  164.9829 C.3     1  UNL1        0.0215
     17 C         142.6963  142.5721  165.9629 C.3     1  UNL1        0.0922
     18 N         137.1288  139.2150  170.3365 N.am    1  UNL1       -0.1695
     19 C         138.5724  139.6025  170.4612 C.2     1  UNL1        0.3283
     20 O         139.3552  139.1983  171.6754 O.2     1  UNL1       -0.2498
     21 H         136.6150  139.4802  169.5397 H       1  UNL1        0.2546
     22 N         137.2399  137.3674  172.1596 N.pl3   1  UNL1       -0.1313
     23 C         136.4678  138.4234  171.4258 C.2     1  UNL1        0.3751
     24 N         135.0347  138.6878  171.7813 N.pl3   1  UNL1       -0.2906
     25 H         136.8061  136.8478  172.8746 H       1  UNL1        0.3060
     26 H         134.6010  138.1682  172.4962 H       1  UNL1        0.2545
     27 H         134.5279  139.3809  171.2996 H       1  UNL1        0.2545
@<TRIPOS>BOND
     1    22    23    2
     2    23    24    1
     3    23    18    1
     4    18    19   am
     5    19    20    2
     6    19     1    1
     7     1     2   ar
     8     2     3   ar
     9     3     4    1
    10     3     5   ar
    11     5    11    1
    12    11    12    1
    13    12    13    1
    14    13    14    1
    15    14    15    1
    16    15    16    1
    17    16    17    1
    18     5     6   ar
    19     6     7   ar
    20     7     8    1
    21     7     1   ar
    22    17    11    1
    23    22    25    1
    24    24    26    1
    25    24    27    1
    26    18    21    1
    27     8     9    1
    28     8    10    1
@<TRIPOS>MOLECULE
*****
 27 28 0 0 0
SMALL
GASTEIGER

@<TRIPOS>ATOM
      1 C         143.2562  142.2058  169.3155 C.ar    1  UNL1        0.1827
      2 N         143.2898  142.5159  167.8483 N.ar    1  UNL1       -0.2222
      3 C         142.6309  141.5886  166.8705 C.ar    1  UNL1        0.1700
      4 CL        142.6645  141.8987  165.4033 Cl      1  UNL1       -0.0583
      5 C         141.9384  140.3513  167.3599 C.ar    1  UNL1        0.1618
      6 N         141.9049  140.0413  168.8271 N.ar    1  UNL1       -0.2123
      7 C         142.5637  140.9685  169.8050 C.ar    1  UNL1        0.1507
      8 N         142.5301  140.6584  171.2722 N.pl3   1  UNL1       -0.3412
      9 H         142.0756  139.8463  171.5934 H       1  UNL1        0.1438
     10 H         142.9626  141.2670  171.9139 H       1  UNL1        0.1438
     11 N         141.2795  139.4240  166.3821 N.pl3   1  UNL1       -0.2913
     12 C         139.7844  139.5164  166.3038 C.3     1  UNL1        0.0922
     13 C         138.8432  138.7345  165.4360 C.3     1  UNL1        0.0215
     14 C         139.1649  137.6673  164.4323 C.3     1  UNL1        0.0018
     15 C         140.5069  137.1183  164.0483 C.3     1  UNL1        0.0018
     16 C         141.8589  137.5010  164.5734 C.3     1  UNL1        0.0215
     17 C         142.2027  138.5272  165.6120 C.3     1  UNL1        0.0922
     18 N         145.3802  143.4312  170.1738 N.am    1  UNL1       -0.1695
     19 C         143.9151  143.1330  170.2933 C.2     1  UNL1        0.3283
     20 O         143.1088  143.7621  171.3907 O.2     1  UNL1       -0.2498
     21 H         145.9094  143.0184  169.4536 H       1  UNL1        0.2546
     22 N         145.2833  145.5337  171.6969 N.pl3   1  UNL1       -0.1313
     23 C         146.0392  144.3585  171.1516 C.2     1  UNL1        0.3751
     24 N         147.4539  144.1105  171.5840 N.pl3   1  UNL1       -0.2906
     25 H         145.7158  146.1423  172.3386 H       1  UNL1        0.3060
     26 H         147.8863  144.7191  172.2258 H       1  UNL1        0.2545
     27 H         147.9500  143.3391  171.2261 H       1  UNL1        0.2545
@<TRIPOS>BOND
     1    22    23    2
     2    23    24    1
     3    23    18    1
     4    18    19   am
     5    19    20    2
     6    19     1    1
     7     1     2   ar
     8     2     3   ar
     9     3     4    1
    10     3     5   ar
    11     5    11    1
    12    11    12    1
    13    12    13    1
    14    13    14    1
    15    14    15    1
    16    15    16    1
    17    16    17    1
    18     5     6   ar
    19     6     7   ar
    20     7     8    1
    21     7     1   ar
    22    17    11    1
    23    22    25    1
    24    24    26    1
    25    24    27    1
    26    18    21    1
    27     8     9    1
    28     8    10    1
@<TRIPOS>MOLECULE
*****
 27 28 0 0 0
SMALL
GASTEIGER

@<TRIPOS>ATOM
      1 C         140.1964  144.4621  162.4812 C.ar    1  UNL1        0.1827
      2 N         141.4592  144.0114  163.1536 N.ar    1  UNL1       -0.2222
      3 C         141.3930  143.2884  164.4663 C.ar    1  UNL1        0.1700
      4 CL        142.6558  142.8376  165.1388 Cl      1  UNL1       -0.0583
      5 C         140.0641  143.0162  165.1065 C.ar    1  UNL1        0.1618
      6 N         138.8013  143.4670  164.4340 N.ar    1  UNL1       -0.2123
      7 C         138.8674  144.1899  163.1214 C.ar    1  UNL1        0.1507
      8 N         137.6046  144.6407  162.4489 N.pl3   1  UNL1       -0.3412
      9 H         136.7324  144.4620  162.8691 H       1  UNL1        0.1438
     10 H         137.6481  145.1152  161.5874 H       1  UNL1        0.1438
     11 N         139.9979  142.2933  166.4191 N.pl3   1  UNL1       -0.2913
     12 C         140.3251  143.1141  167.6313 C.3     1  UNL1        0.0922
     13 C         140.3484  142.6895  169.0698 C.3     1  UNL1        0.0215
     14 C         140.0504  141.3394  169.6513 C.3     1  UNL1        0.0018
     15 C         139.6553  140.0803  168.9381 C.3     1  UNL1        0.0018
     16 C         139.4608  139.8605  167.4671 C.3     1  UNL1        0.0215
     17 C         139.6133  140.8454  166.3461 C.3     1  UNL1        0.0922
     18 N         141.1906  144.7035  160.0931 N.am    1  UNL1       -0.1695
     19 C         140.2626  145.1850  161.1686 C.2     1  UNL1        0.3283
     20 O         139.4006  146.3896  160.9314 O.2     1  UNL1       -0.2498
     21 H         141.7563  143.9129  160.2487 H       1  UNL1        0.2546
     22 N         139.9985  145.9285  158.1365 N.pl3   1  UNL1       -0.1313
     23 C         141.2568  145.4264  158.7804 C.2     1  UNL1        0.3751
     24 N         142.5811  145.6472  158.1117 N.pl3   1  UNL1       -0.2906
     25 H         140.0420  146.4029  157.2750 H       1  UNL1        0.3060
     26 H         142.6245  146.1216  157.2501 H       1  UNL1        0.2545
     27 H         143.4070  145.3176  158.5343 H       1  UNL1        0.2545
@<TRIPOS>BOND
     1    22    23    2
     2    23    24    1
     3    23    18    1
     4    18    19   am
     5    19    20    2
     6    19     1    1
     7     1     2   ar
     8     2     3   ar
     9     3     4    1
    10     3     5   ar
    11     5    11    1
    12    11    12    1
    13    12    13    1
    14    13    14    1
    15    14    15    1
    16    15    16    1
    17    16    17    1
    18     5     6   ar
    19     6     7   ar
    20     7     8    1
    21     7     1   ar
    22    17    11    1
    23    22    25    1
    24    24    26    1
    25    24    27    1
    26    18    21    1
    27     8     9    1
    28     8    10    1
@<TRIPOS>MOLECULE
*****
 27 28 0 0 0
SMALL
GASTEIGER

@<TRIPOS>ATOM
      1 C         140.7263  145.3097  158.4545 C.ar    1  UNL1        0.1827
      2 N         139.9650  145.5211  159.7296 N.ar    1  UNL1       -0.2222
      3 C         140.5267  145.0259  161.0294 C.ar    1  UNL1        0.1700
      4 CL        139.7655  145.2373  162.3044 Cl      1  UNL1       -0.0583
      5 C         141.8496  144.3194  161.0540 C.ar    1  UNL1        0.1618
      6 N         142.6109  144.1080  159.7790 N.ar    1  UNL1       -0.2123
      7 C         142.0493  144.6032  158.4792 C.ar    1  UNL1        0.1507
      8 N         142.8105  144.3918  157.2041 N.pl3   1  UNL1       -0.3412
      9 H         143.6788  143.9280  157.2203 H       1  UNL1        0.1438
     10 H         142.4419  144.7167  156.3511 H       1  UNL1        0.1438
     11 N         142.4114  143.8242  162.3537 N.pl3   1  UNL1       -0.2913
     12 C         143.2919  144.7888  163.0917 C.3     1  UNL1        0.0922
     13 C         143.9969  144.5973  164.4019 C.3     1  UNL1        0.0215
     14 C         143.9954  143.3941  165.2975 C.3     1  UNL1        0.0018
     15 C         143.2887  142.0852  165.1044 C.3     1  UNL1        0.0018
     16 C         142.4089  141.6562  163.9678 C.3     1  UNL1        0.0215
     17 C         142.0185  142.4302  162.7436 C.3     1  UNL1        0.0922
     18 N         139.5947  147.1893  157.0630 N.am    1  UNL1       -0.1695
     19 C         140.1646  145.8049  157.1548 C.2     1  UNL1        0.3283
     20 O         140.1729  144.9156  155.9468 O.2     1  UNL1       -0.2498
     21 H         139.5892  147.7729  157.8558 H       1  UNL1        0.2546
     22 N         139.3627  149.0663  155.2818 N.pl3   1  UNL1       -0.1313
     23 C         139.0330  147.6845  155.7632 C.2     1  UNL1        0.3751
     24 N         138.1416  146.7980  154.9450 N.pl3   1  UNL1       -0.2906
     25 H         138.9941  149.3914  154.4287 H       1  UNL1        0.3060
     26 H         137.7730  147.1232  154.0920 H       1  UNL1        0.2545
     27 H         137.9252  145.8911  155.2610 H       1  UNL1        0.2545
@<TRIPOS>BOND
     1    22    23    2
     2    23    24    1
     3    23    18    1
     4    18    19   am
     5    19    20    2
     6    19     1    1
     7     1     2   ar
     8     2     3   ar
     9     3     4    1
    10     3     5   ar
    11     5    11    1
    12    11    12    1
    13    12    13    1
    14    13    14    1
    15    14    15    1
    16    15    16    1
    17    16    17    1
    18     5     6   ar
    19     6     7   ar
    20     7     8    1
    21     7     1   ar
    22    17    11    1
    23    22    25    1
    24    24    26    1
    25    24    27    1
    26    18    21    1
    27     8     9    1
    28     8    10    1
@<TRIPOS>MOLECULE
*****
 27 28 0 0 0
SMALL
GASTEIGER

@<TRIPOS>ATOM
      1 C         140.4448  141.4548  167.7545 C.ar    1  UNL1        0.1827
      2 N         141.0407  142.1009  166.5391 N.ar    1  UNL1       -0.2222
      3 C         140.6979  141.5869  165.1721 C.ar    1  UNL1        0.1700
      4 CL        141.2938  142.2330  163.9567 Cl      1  UNL1       -0.0583
      5 C         139.7591  140.4269  165.0208 C.ar    1  UNL1        0.1618
      6 N         139.1632  139.7808  166.2362 N.ar    1  UNL1       -0.2123
      7 C         139.5060  140.2947  167.6032 C.ar    1  UNL1        0.1507
      8 N         138.9100  139.6486  168.8186 N.pl3   1  UNL1       -0.3412
      9 H         138.2938  138.8872  168.7193 H       1  UNL1        0.1438
     10 H         139.1350  139.9859  169.7157 H       1  UNL1        0.1438
     11 N         139.4163  139.9129  163.6539 N.pl3   1  UNL1       -0.2913
     12 C         138.2858  140.6134  162.9599 C.3     1  UNL1        0.0922
     13 C         137.7091  140.3403  161.6024 C.3     1  UNL1        0.0215
     14 C         138.1202  139.2995  160.6037 C.3     1  UNL1        0.0018
     15 C         139.2097  138.2745  160.7157 C.3     1  UNL1        0.0018
     16 C         140.1571  138.0373  161.8542 C.3     1  UNL1        0.0215
     17 C         140.2490  138.7665  163.1618 C.3     1  UNL1        0.0922
     18 N         142.2103  142.2983  169.4637 N.am    1  UNL1       -0.1695
     19 C         140.7876  141.9687  169.1214 C.2     1  UNL1        0.3283
     20 O         139.7076  142.1532  170.1460 O.2     1  UNL1       -0.2498
     21 H         142.9191  142.1772  168.7912 H       1  UNL1        0.2546
     22 N         141.9381  142.1820  172.0448 N.pl3   1  UNL1       -0.1313
     23 C         142.5532  142.8122  170.8305 C.2     1  UNL1        0.3751
     24 N         143.5110  143.9564  170.9832 N.pl3   1  UNL1       -0.2906
     25 H         142.1631  142.5193  172.9419 H       1  UNL1        0.3060
     26 H         143.7360  144.2936  171.8803 H       1  UNL1        0.2545
     27 H         143.9147  144.3700  170.1863 H       1  UNL1        0.2545
@<TRIPOS>BOND
     1    22    23    2
     2    23    24    1
     3    23    18    1
     4    18    19   am
     5    19    20    2
     6    19     1    1
     7     1     2   ar
     8     2     3   ar
     9     3     4    1
    10     3     5   ar
    11     5    11    1
    12    11    12    1
    13    12    13    1
    14    13    14    1
    15    14    15    1
    16    15    16    1
    17    16    17    1
    18     5     6   ar
    19     6     7   ar
    20     7     8    1
    21     7     1   ar
    22    17    11    1
    23    22    25    1
    24    24    26    1
    25    24    27    1
    26    18    21    1
    27     8     9    1
    28     8    10    1
@<TRIPOS>MOLECULE
*****
 27 28 0 0 0
SMALL
GASTEIGER

@<TRIPOS>ATOM
      1 C         139.5144  140.1467  167.3721 C.ar    1  UNL1        0.1827
      2 N         140.4140  140.9303  166.4629 N.ar    1  UNL1       -0.2222
      3 C         140.3043  140.7665  164.9759 C.ar    1  UNL1        0.1700
      4 CL        141.2040  141.5501  164.0667 Cl      1  UNL1       -0.0583
      5 C         139.2950  139.8193  164.3981 C.ar    1  UNL1        0.1618
      6 N         138.3953  139.0357  165.3073 N.ar    1  UNL1       -0.2123
      7 C         138.5050  139.1994  166.7943 C.ar    1  UNL1        0.1507
      8 N         137.6053  138.4158  167.7035 N.pl3   1  UNL1       -0.3412
      9 H         136.9429  137.7941  167.3243 H       1  UNL1        0.1438
     10 H         137.6773  138.5233  168.6795 H       1  UNL1        0.1438
     11 N         139.1852  139.6555  162.9111 N.pl3   1  UNL1       -0.2913
     12 C         140.0996  138.6356  162.2995 C.3     1  UNL1        0.0922
     13 C         140.2302  138.2416  160.8580 C.3     1  UNL1        0.0215
     14 C         139.4788  138.7700  159.6724 C.3     1  UNL1        0.0018
     15 C         138.4112  139.8230  159.6350 C.3     1  UNL1        0.0018
     16 C         137.8313  140.6076  160.7744 C.3     1  UNL1        0.0215
     17 C         138.1758  140.5330  162.2324 C.3     1  UNL1        0.0922
     18 N         140.9027  140.8061  169.4668 N.am    1  UNL1       -0.1695
     19 C         139.6241  140.3105  168.8591 C.2     1  UNL1        0.3283
     20 O         138.4550  139.9786  169.7385 O.2     1  UNL1       -0.2498
     21 H         141.6700  141.0240  168.8896 H       1  UNL1        0.2546
     22 N         141.8742  142.0556  171.5271 N.pl3   1  UNL1       -0.1313
     23 C         141.0125  140.9699  170.9537 C.2     1  UNL1        0.3751
     24 N         140.2606  140.0480  171.8674 N.pl3   1  UNL1       -0.2906
     25 H         141.9463  142.1631  172.5030 H       1  UNL1        0.3060
     26 H         140.3327  140.1556  172.8434 H       1  UNL1        0.2545
     27 H         139.6951  139.3354  171.4912 H       1  UNL1        0.2545
@<TRIPOS>BOND
     1    22    23    2
     2    23    24    1
     3    23    18    1
     4    18    19   am
     5    19    20    2
     6    19     1    1
     7     1     2   ar
     8     2     3   ar
     9     3     4    1
    10     3     5   ar
    11     5    11    1
    12    11    12    1
    13    12    13    1
    14    13    14    1
    15    14    15    1
    16    15    16    1
    17    16    17    1
    18     5     6   ar
    19     6     7   ar
    20     7     8    1
    21     7     1   ar
    22    17    11    1
    23    22    25    1
    24    24    26    1
    25    24    27    1
    26    18    21    1
    27     8     9    1
    28     8    10    1
@<TRIPOS>MOLECULE
*****
 27 28 0 0 0
SMALL
GASTEIGER

@<TRIPOS>ATOM
      1 C         142.0999  141.3495  167.0209 C.ar    1  UNL1        0.1827
      2 N         143.1440  142.2877  166.4920 N.ar    1  UNL1       -0.2222
      3 C         142.9242  142.9965  165.1883 C.ar    1  UNL1        0.1700
      4 CL        143.9683  143.9347  164.6595 Cl      1  UNL1       -0.0583
      5 C         141.6605  142.7669  164.4136 C.ar    1  UNL1        0.1618
      6 N         140.6165  141.8287  164.9425 N.ar    1  UNL1       -0.2123
      7 C         140.8361  141.1199  166.2461 C.ar    1  UNL1        0.1507
      8 N         139.7921  140.1817  166.7750 N.pl3   1  UNL1       -0.3412
      9 H         138.9627  140.0311  166.2664 H       1  UNL1        0.1438
     10 H         139.9363  139.7165  167.6306 H       1  UNL1        0.1438
     11 N         141.4407  143.4756  163.1100 N.pl3   1  UNL1       -0.2913
     12 C         140.6140  144.7254  163.1800 C.3     1  UNL1        0.0922
     13 C         140.2191  145.6491  162.0659 C.3     1  UNL1        0.0215
     14 C         140.5533  145.5511  160.6071 C.3     1  UNL1        0.0018
     15 C         141.3650  144.5054  159.9016 C.3     1  UNL1        0.0018
     16 C         142.0429  143.2993  160.4809 C.3     1  UNL1        0.0215
     17 C         142.0766  142.8411  161.9089 C.3     1  UNL1        0.0922
     18 N         141.8650  141.2717  169.6071 N.am    1  UNL1       -0.1695
     19 C         142.3196  140.6408  168.3245 C.2     1  UNL1        0.3283
     20 O         142.9940  139.3010  168.3455 O.2     1  UNL1       -0.2498
     21 H         141.4224  142.1510  169.5933 H       1  UNL1        0.2546
     22 N         141.0191  140.5869  171.9661 N.pl3   1  UNL1       -0.1313
     23 C         142.0847  140.5630  170.9107 C.2     1  UNL1        0.3751
     24 N         143.3698  139.8305  171.1591 N.pl3   1  UNL1       -0.2906
     25 H         141.1632  140.1218  172.8218 H       1  UNL1        0.3060
     26 H         143.5139  139.3654  172.0147 H       1  UNL1        0.2545
     27 H         144.0692  139.8148  170.4664 H       1  UNL1        0.2545
@<TRIPOS>BOND
     1    22    23    2
     2    23    24    1
     3    23    18    1
     4    18    19   am
     5    19    20    2
     6    19     1    1
     7     1     2   ar
     8     2     3   ar
     9     3     4    1
    10     3     5   ar
    11     5    11    1
    12    11    12    1
    13    12    13    1
    14    13    14    1
    15    14    15    1
    16    15    16    1
    17    16    17    1
    18     5     6   ar
    19     6     7   ar
    20     7     8    1
    21     7     1   ar
    22    17    11    1
    23    22    25    1
    24    24    26    1
    25    24    27    1
    26    18    21    1
    27     8     9    1
    28     8    10    1
@<TRIPOS>MOLECULE
*****
 27 28 0 0 0
SMALL
GASTEIGER

@<TRIPOS>ATOM
      1 C         141.1429  140.4487  167.5509 C.ar    1  UNL1        0.1827
      2 N         140.4261  141.0463  166.3765 N.ar    1  UNL1       -0.2222
      3 C         140.8778  140.7295  164.9816 C.ar    1  UNL1        0.1700
      4 CL        140.1610  141.3270  163.8073 Cl      1  UNL1       -0.0583
      5 C         142.0462  139.8151  164.7611 C.ar    1  UNL1        0.1618
      6 N         142.7631  139.2176  165.9355 N.ar    1  UNL1       -0.2123
      7 C         142.3114  139.5344  167.3304 C.ar    1  UNL1        0.1507
      8 N         143.0282  138.9368  168.5047 N.pl3   1  UNL1       -0.3412
      9 H         143.7952  138.3367  168.3600 H       1  UNL1        0.1438
     10 H         142.7318  139.1447  169.4202 H       1  UNL1        0.1438
     11 N         142.4980  139.4983  163.3663 N.pl3   1  UNL1       -0.2913
     12 C         141.8922  138.2728  162.7487 C.3     1  UNL1        0.0922
     13 C         142.1345  137.6952  161.3856 C.3     1  UNL1        0.0215
     14 C         143.0424  138.2003  160.3038 C.3     1  UNL1        0.0018
     15 C         143.9323  139.4078  160.3176 C.3     1  UNL1        0.0018
     16 C         144.1340  140.4084  161.4168 C.3     1  UNL1        0.0215
     17 C         143.4956  140.4486  162.7736 C.3     1  UNL1        0.0922
     18 N         140.6516  142.1892  169.4161 N.am    1  UNL1       -0.1695
     19 C         140.6912  140.7655  168.9457 C.2     1  UNL1        0.3283
     20 O         140.2792  139.6585  169.8703 O.2     1  UNL1       -0.2498
     21 H         140.9220  142.9158  168.8093 H       1  UNL1        0.2546
     22 N         140.7861  141.7646  171.9756 N.pl3   1  UNL1       -0.1313
     23 C         140.1999  142.5061  170.8109 C.2     1  UNL1        0.3751
     24 N         139.1622  143.5644  171.0411 N.pl3   1  UNL1       -0.2906
     25 H         140.4897  141.9726  172.8911 H       1  UNL1        0.3060
     26 H         138.8658  143.7723  171.9566 H       1  UNL1        0.2545
     27 H         138.7774  144.0510  170.2767 H       1  UNL1        0.2545
@<TRIPOS>BOND
     1    22    23    2
     2    23    24    1
     3    23    18    1
     4    18    19   am
     5    19    20    2
     6    19     1    1
     7     1     2   ar
     8     2     3   ar
     9     3     4    1
    10     3     5   ar
    11     5    11    1
    12    11    12    1
    13    12    13    1
    14    13    14    1
    15    14    15    1
    16    15    16    1
    17    16    17    1
    18     5     6   ar
    19     6     7   ar
    20     7     8    1
    21     7     1   ar
    22    17    11    1
    23    22    25    1
    24    24    26    1
    25    24    27    1
    26    18    21    1
    27     8     9    1
    28     8    10    1
