@<TRIPOS>MOLECULE
*****
 45 48 0 0 0
SMALL
GASTEIGER

@<TRIPOS>ATOM
      1 C         144.3733  140.1361  163.4825 C.ar    1  UNL1        0.1737
      2 C         144.2650  139.5781  162.0944 C.ar    1  UNL1        0.0593
      3 C         143.7952  140.4518  160.9693 C.ar    1  UNL1        0.0890
      4 N         143.6869  139.8938  159.5812 N.ar    1  UNL1       -0.2238
      5 C         143.2171  140.7676  158.4562 C.ar    1  UNL1        0.2000
      6 N         142.8554  142.1994  158.7193 N.ar    1  UNL1       -0.2089
      7 C         142.9637  142.7574  160.1074 C.ar    1  UNL1        0.1364
      8 C         143.4335  141.8836  161.2324 C.ar    1  UNL1        0.0527
      9 C         143.5418  142.4416  162.6206 C.ar    1  UNL1        0.0443
     10 C         144.0117  141.5679  163.7456 C.ar    1  UNL1        0.1726
     11 N         142.6020  144.1892  160.3705 N.pl3   1  UNL1       -0.2837
     12 H         143.2285  144.9081  160.1257 H       1  UNL1        0.1550
     13 C         141.2860  144.5256  161.0066 C.ar    1  UNL1        0.1276
     14 C         140.3600  143.5578  161.6818 C.ar    1  UNL1        0.0507
     15 C         139.1664  144.3231  162.1717 C.ar    1  UNL1        0.0903
     16 N         139.3548  145.7639  161.7992 N.ar    1  UNL1       -0.1755
     17 N         140.6647  145.8891  161.0792 N.ar    1  UNL1       -0.2631
     18 H         141.0491  146.7202  160.7177 H       1  UNL1        0.1903
     19 C         137.9910  143.7484  162.9053 C.3     1  UNL1        0.1328
     20 C         137.9807  142.2976  163.2858 C.2     1  UNL1        0.2323
     21 O         136.9539  141.3754  162.6981 O.2     1  UNL1       -0.2744
     22 N         138.9970  141.7690  164.2541 N.am    1  UNL1       -0.2818
     23 H         139.6709  142.3742  164.6398 H       1  UNL1        0.1549
     24 C         138.9867  140.3181  164.6346 C.ar    1  UNL1        0.0804
     25 C         138.0775  139.8353  165.7257 C.ar    1  UNL1        0.0171
     26 C         138.0672  138.3844  166.1063 C.ar    1  UNL1        0.0037
     27 C         138.9661  137.4162  165.3957 C.ar    1  UNL1        0.0321
     28 C         139.8752  137.8990  164.3047 C.ar    1  UNL1        0.1686
     29 F         140.7740  136.9309  163.5942 F       1  UNL1       -0.2018
     30 C         139.8855  139.3499  163.9241 C.ar    1  UNL1        0.1807
     31 F         140.7946  139.8326  162.8331 F       1  UNL1       -0.2005
     32 O         144.1199  142.1259  165.1338 O.3     1  UNL1       -0.4684
     33 C         144.4484  143.5754  165.3359 C.3     1  UNL1        0.2526
     34 O         144.8432  139.2623  164.6076 O.3     1  UNL1       -0.4723
     35 C         143.8627  138.4036  165.3502 C.3     1  UNL1        0.2070
     36 C         142.7813  139.0394  166.1725 C.3     1  UNL1        0.0646
     37 C         142.9602  139.1978  167.6534 C.3     1  UNL1        0.0760
     38 N         142.1917  140.2523  168.3931 N.3     1  UNL1       -0.2705
     39 C         140.7575  140.5190  168.0437 C.3     1  UNL1        0.0722
     40 C         139.1896  141.0299  170.0514 C.3     1  UNL1        0.0015
     41 C         139.6658  140.0938  168.9804 C.3     1  UNL1        0.0173
     42 C         142.8573  141.0401  169.4824 C.3     1  UNL1        0.1042
     43 C         142.8537  140.5240  170.8907 C.3     1  UNL1        0.1544
     44 O         143.7459  139.3803  171.2726 O.3     1  UNL1       -0.3805
     45 H         143.4623  138.5790  170.8053 H       1  UNL1        0.2105
@<TRIPOS>BOND
     1    40    41    1
     2    41    39    1
     3    39    38    1
     4    38    42    1
     5    42    43    1
     6    43    44    1
     7    38    37    1
     8    37    36    1
     9    36    35    1
    10    35    34    1
    11    34     1    1
    12     1     2   ar
    13     2     3   ar
    14     3     4   ar
    15     4     5   ar
    16     5     6   ar
    17     6     7   ar
    18     7    11    1
    19    11    13    1
    20    13    14   ar
    21    14    15   ar
    22    15    19    1
    23    19    20    1
    24    20    21    2
    25    20    22   am
    26    22    24    1
    27    24    25   ar
    28    25    26   ar
    29    26    27   ar
    30    27    28   ar
    31    28    29    1
    32    28    30   ar
    33    30    31    1
    34    15    16   ar
    35    16    17   ar
    36     7     8   ar
    37     8     9   ar
    38     9    10   ar
    39    10    32    1
    40    32    33    1
    41    10     1   ar
    42     8     3   ar
    43    17    13   ar
    44    30    24   ar
    45    44    45    1
    46    11    12    1
    47    22    23    1
    48    17    18    1
@<TRIPOS>MOLECULE
*****
 45 48 0 0 0
SMALL
GASTEIGER

@<TRIPOS>ATOM
      1 C         143.9069  140.1739  162.1078 C.ar    1  UNL1        0.1737
      2 C         143.4029  140.2390  160.6965 C.ar    1  UNL1        0.0593
      3 C         142.0814  139.6237  160.3428 C.ar    1  UNL1        0.0890
      4 N         141.5775  139.6889  158.9316 N.ar    1  UNL1       -0.2238
      5 C         140.2560  139.0736  158.5780 C.ar    1  UNL1        0.2000
      6 N         139.4385  138.3931  159.6356 N.ar    1  UNL1       -0.2089
      7 C         139.9424  138.3280  161.0469 C.ar    1  UNL1        0.1364
      8 C         141.2639  138.9433  161.4005 C.ar    1  UNL1        0.0527
      9 C         141.7679  138.8782  162.8118 C.ar    1  UNL1        0.0443
     10 C         143.0894  139.4934  163.1655 C.ar    1  UNL1        0.1726
     11 N         139.1249  137.6476  162.1046 N.pl3   1  UNL1       -0.2837
     12 H         138.8361  136.7148  161.9793 H       1  UNL1        0.1550
     13 C         138.7474  138.3883  163.3530 C.ar    1  UNL1        0.1276
     14 C         138.7502  137.8292  164.7449 C.ar    1  UNL1        0.0507
     15 C         138.3053  138.9137  165.6810 C.ar    1  UNL1        0.0903
     16 N         138.0276  140.1431  164.8676 N.ar    1  UNL1       -0.1755
     17 N         138.3008  139.8184  163.4288 N.ar    1  UNL1       -0.2631
     18 H         138.2040  140.4355  162.6679 H       1  UNL1        0.1903
     19 C         138.1632  138.7905  167.1692 C.3     1  UNL1        0.1328
     20 C         138.9273  139.7106  168.0743 C.2     1  UNL1        0.2323
     21 O         138.5893  139.7777  169.5343 O.2     1  UNL1       -0.2744
     22 N         140.0294  140.5637  167.5196 N.am    1  UNL1       -0.2818
     23 H         140.2512  140.5196  166.5614 H       1  UNL1        0.1549
     24 C         140.7935  141.4838  168.4248 C.ar    1  UNL1        0.0804
     25 C         140.1491  142.7381  168.9367 C.ar    1  UNL1        0.0171
     26 C         140.9133  143.6582  169.8419 C.ar    1  UNL1        0.0037
     27 C         142.3218  143.3242  170.2352 C.ar    1  UNL1        0.0321
     28 C         142.9661  142.0701  169.7234 C.ar    1  UNL1        0.1686
     29 F         144.3745  141.7361  170.1168 F       1  UNL1       -0.2018
     30 C         142.2019  141.1499  168.8182 C.ar    1  UNL1        0.1807
     31 F         142.8463  139.8958  168.3064 F       1  UNL1       -0.2005
     32 O         143.5934  139.4283  164.5768 O.3     1  UNL1       -0.4684
     33 C         143.0986  138.3555  165.5011 C.3     1  UNL1        0.2526
     34 O         145.2284  140.7892  162.4615 O.3     1  UNL1       -0.4723
     35 C         145.2818  142.1766  163.0291 C.3     1  UNL1        0.2070
     36 C         144.6870  143.3227  162.2657 C.3     1  UNL1        0.0646
     37 C         143.7563  144.2782  162.9517 C.3     1  UNL1        0.0760
     38 N         142.3233  143.8971  163.1783 N.3     1  UNL1       -0.2705
     39 C         141.4442  143.5568  162.0116 C.3     1  UNL1        0.0722
     40 C         140.1471  145.8068  161.9383 C.3     1  UNL1        0.0015
     41 C         140.7842  144.6508  161.2256 C.3     1  UNL1        0.0173
     42 C         141.7694  143.8563  164.5718 C.3     1  UNL1        0.1042
     43 C         140.5508  143.0344  164.8707 C.3     1  UNL1        0.1544
     44 O         140.5893  141.5451  164.6960 O.3     1  UNL1       -0.3805
     45 H         140.7020  141.3326  163.7563 H       1  UNL1        0.2105
@<TRIPOS>BOND
     1    40    41    1
     2    41    39    1
     3    39    38    1
     4    38    42    1
     5    42    43    1
     6    43    44    1
     7    38    37    1
     8    37    36    1
     9    36    35    1
    10    35    34    1
    11    34     1    1
    12     1     2   ar
    13     2     3   ar
    14     3     4   ar
    15     4     5   ar
    16     5     6   ar
    17     6     7   ar
    18     7    11    1
    19    11    13    1
    20    13    14   ar
    21    14    15   ar
    22    15    19    1
    23    19    20    1
    24    20    21    2
    25    20    22   am
    26    22    24    1
    27    24    25   ar
    28    25    26   ar
    29    26    27   ar
    30    27    28   ar
    31    28    29    1
    32    28    30   ar
    33    30    31    1
    34    15    16   ar
    35    16    17   ar
    36     7     8   ar
    37     8     9   ar
    38     9    10   ar
    39    10    32    1
    40    32    33    1
    41    10     1   ar
    42     8     3   ar
    43    17    13   ar
    44    30    24   ar
    45    44    45    1
    46    11    12    1
    47    22    23    1
    48    17    18    1
@<TRIPOS>MOLECULE
*****
 45 48 0 0 0
SMALL
GASTEIGER

@<TRIPOS>ATOM
      1 C         140.6545  144.8626  162.0623 C.ar    1  UNL1        0.1737
      2 C         141.0457  144.7432  160.6192 C.ar    1  UNL1        0.0593
      3 C         142.2976  144.0091  160.2397 C.ar    1  UNL1        0.0890
      4 N         142.6888  143.8897  158.7966 N.ar    1  UNL1       -0.2238
      5 C         143.9407  143.1557  158.4172 C.ar    1  UNL1        0.2000
      6 N         144.8014  142.5412  159.4809 N.ar    1  UNL1       -0.2089
      7 C         144.4102  142.6606  160.9240 C.ar    1  UNL1        0.1364
      8 C         143.1583  143.3946  161.3034 C.ar    1  UNL1        0.0527
      9 C         142.7671  143.5141  162.7466 C.ar    1  UNL1        0.0443
     10 C         141.5152  144.2481  163.1260 C.ar    1  UNL1        0.1726
     11 N         145.2709  142.0461  161.9878 N.pl3   1  UNL1       -0.2837
     12 H         146.1338  142.4583  162.2218 H       1  UNL1        0.1550
     13 C         144.8170  140.8036  162.6949 C.ar    1  UNL1        0.1276
     14 C         144.4117  140.7074  164.1359 C.ar    1  UNL1        0.0507
     15 C         144.0328  139.2834  164.4168 C.ar    1  UNL1        0.0903
     16 N         144.2040  138.4996  163.1493 N.ar    1  UNL1       -0.1755
     17 N         144.6886  139.4391  162.0852 N.ar    1  UNL1       -0.2631
     18 H         144.8875  139.2018  161.1506 H       1  UNL1        0.1903
     19 C         143.5649  138.7389  165.7338 C.3     1  UNL1        0.1328
     20 C         142.5054  139.4624  166.5107 C.2     1  UNL1        0.2323
     21 O         141.1600  139.7086  165.8946 O.2     1  UNL1       -0.2744
     22 N         142.7911  139.9399  167.9037 N.am    1  UNL1       -0.2818
     23 H         143.6741  139.7784  168.3080 H       1  UNL1        0.1549
     24 C         141.7315  140.6635  168.6806 C.ar    1  UNL1        0.0804
     25 C         140.5380  139.9159  169.1972 C.ar    1  UNL1        0.0171
     26 C         139.4783  140.6395  169.9741 C.ar    1  UNL1        0.0037
     27 C         139.6122  142.1108  170.2345 C.ar    1  UNL1        0.0321
     28 C         140.8057  142.8583  169.7180 C.ar    1  UNL1        0.1686
     29 F         140.9396  144.3294  169.9784 F       1  UNL1       -0.2018
     30 C         141.8653  142.1347  168.9410 C.ar    1  UNL1        0.1807
     31 F         143.0587  142.8822  168.4245 F       1  UNL1       -0.2005
     32 O         141.1240  144.3676  164.5692 O.3     1  UNL1       -0.4684
     33 C         140.8963  143.1324  165.3893 C.3     1  UNL1        0.2526
     34 O         139.4025  145.5966  162.4418 O.3     1  UNL1       -0.4723
     35 C         138.2500  144.8509  163.0464 C.3     1  UNL1        0.2070
     36 C         137.8033  143.5491  162.4500 C.3     1  UNL1        0.0646
     37 C         137.9644  142.2748  163.2246 C.3     1  UNL1        0.0760
     38 N         138.6454  141.0957  162.5955 N.3     1  UNL1       -0.2705
     39 C         139.8289  141.3041  161.6977 C.3     1  UNL1        0.0722
     40 C         141.5986  139.7564  160.5918 C.3     1  UNL1        0.0015
     41 C         141.0266  140.4086  161.8155 C.3     1  UNL1        0.0173
     42 C         138.1430  139.7080  162.8641 C.3     1  UNL1        0.1042
     43 C         137.6953  138.8391  161.7263 C.3     1  UNL1        0.1544
     44 O         136.6726  139.3458  160.7530 O.3     1  UNL1       -0.3805
     45 H         135.8248  139.4665  161.2085 H       1  UNL1        0.2105
@<TRIPOS>BOND
     1    40    41    1
     2    41    39    1
     3    39    38    1
     4    38    42    1
     5    42    43    1
     6    43    44    1
     7    38    37    1
     8    37    36    1
     9    36    35    1
    10    35    34    1
    11    34     1    1
    12     1     2   ar
    13     2     3   ar
    14     3     4   ar
    15     4     5   ar
    16     5     6   ar
    17     6     7   ar
    18     7    11    1
    19    11    13    1
    20    13    14   ar
    21    14    15   ar
    22    15    19    1
    23    19    20    1
    24    20    21    2
    25    20    22   am
    26    22    24    1
    27    24    25   ar
    28    25    26   ar
    29    26    27   ar
    30    27    28   ar
    31    28    29    1
    32    28    30   ar
    33    30    31    1
    34    15    16   ar
    35    16    17   ar
    36     7     8   ar
    37     8     9   ar
    38     9    10   ar
    39    10    32    1
    40    32    33    1
    41    10     1   ar
    42     8     3   ar
    43    17    13   ar
    44    30    24   ar
    45    44    45    1
    46    11    12    1
    47    22    23    1
    48    17    18    1
@<TRIPOS>MOLECULE
*****
 45 48 0 0 0
SMALL
GASTEIGER

@<TRIPOS>ATOM
      1 C         139.9490  143.5210  160.1930 C.ar    1  UNL1        0.1737
      2 C         141.1343  142.9304  159.4885 C.ar    1  UNL1        0.0593
      3 C         141.3490  141.4459  159.4973 C.ar    1  UNL1        0.0890
      4 N         142.5342  140.8553  158.7928 N.ar    1  UNL1       -0.2238
      5 C         142.7489  139.3708  158.8016 C.ar    1  UNL1        0.2000
      6 N         141.7783  138.4769  159.5149 N.ar    1  UNL1       -0.2089
      7 C         140.5931  139.0674  160.2194 C.ar    1  UNL1        0.1364
      8 C         140.3784  140.5519  160.2106 C.ar    1  UNL1        0.0527
      9 C         139.1931  141.1426  160.9151 C.ar    1  UNL1        0.0443
     10 C         138.9784  142.6271  160.9063 C.ar    1  UNL1        0.1726
     11 N         139.6225  138.1735  160.9327 N.pl3   1  UNL1       -0.2837
     12 H         138.9449  137.6751  160.4212 H       1  UNL1        0.1550
     13 C         139.6843  138.0390  162.4254 C.ar    1  UNL1        0.1276
     14 C         138.6345  138.4931  163.3958 C.ar    1  UNL1        0.0507
     15 C         139.1081  138.1615  164.7800 C.ar    1  UNL1        0.0903
     16 N         140.4507  137.5024  164.6649 N.ar    1  UNL1       -0.1755
     17 N         140.8068  137.4267  163.2098 N.ar    1  UNL1       -0.2631
     18 H         141.6323  137.0426  162.8353 H       1  UNL1        0.1903
     19 C         138.3690  138.4400  166.0551 C.3     1  UNL1        0.1328
     20 C         138.9925  139.3055  167.1097 C.2     1  UNL1        0.2323
     21 O         138.4077  139.3442  168.4905 O.2     1  UNL1       -0.2744
     22 N         140.2009  140.1322  166.7835 N.am    1  UNL1       -0.2818
     23 H         140.5848  140.1067  165.8773 H       1  UNL1        0.1549
     24 C         140.8245  140.9976  167.8381 C.ar    1  UNL1        0.0804
     25 C         140.2270  142.3353  168.1604 C.ar    1  UNL1        0.0171
     26 C         140.8505  143.2008  169.2150 C.ar    1  UNL1        0.0037
     27 C         142.0715  142.7286  169.9474 C.ar    1  UNL1        0.0321
     28 C         142.6690  141.3910  169.6251 C.ar    1  UNL1        0.1686
     29 F         143.8899  140.9188  170.3574 F       1  UNL1       -0.2018
     30 C         142.0454  140.5255  168.5705 C.ar    1  UNL1        0.1807
     31 F         142.6429  139.1880  168.2482 F       1  UNL1       -0.2005
     32 O         137.7931  143.2177  161.6108 O.3     1  UNL1       -0.4684
     33 C         137.6188  143.0124  163.0864 C.3     1  UNL1        0.2526
     34 O         139.7343  145.0056  160.1842 O.3     1  UNL1       -0.4723
     35 C         140.1969  145.8371  161.3437 C.3     1  UNL1        0.2070
     36 C         140.5297  145.1817  162.6512 C.3     1  UNL1        0.0646
     37 C         141.9330  145.2300  163.1787 C.3     1  UNL1        0.0760
     38 N         142.6286  143.9621  163.5768 N.3     1  UNL1       -0.2705
     39 C         144.0356  143.7048  163.1249 C.3     1  UNL1        0.0722
     40 C         144.6231  141.7220  161.5522 C.3     1  UNL1        0.0015
     41 C         144.2952  143.1728  161.7467 C.3     1  UNL1        0.0173
     42 C         141.9173  142.9515  164.4269 C.3     1  UNL1        0.1042
     43 C         142.4919  141.5763  164.5964 C.3     1  UNL1        0.1544
     44 O         141.7619  140.3858  164.0490 O.3     1  UNL1       -0.3805
     45 H         140.9252  140.2720  164.5264 H       1  UNL1        0.2105
@<TRIPOS>BOND
     1    40    41    1
     2    41    39    1
     3    39    38    1
     4    38    42    1
     5    42    43    1
     6    43    44    1
     7    38    37    1
     8    37    36    1
     9    36    35    1
    10    35    34    1
    11    34     1    1
    12     1     2   ar
    13     2     3   ar
    14     3     4   ar
    15     4     5   ar
    16     5     6   ar
    17     6     7   ar
    18     7    11    1
    19    11    13    1
    20    13    14   ar
    21    14    15   ar
    22    15    19    1
    23    19    20    1
    24    20    21    2
    25    20    22   am
    26    22    24    1
    27    24    25   ar
    28    25    26   ar
    29    26    27   ar
    30    27    28   ar
    31    28    29    1
    32    28    30   ar
    33    30    31    1
    34    15    16   ar
    35    16    17   ar
    36     7     8   ar
    37     8     9   ar
    38     9    10   ar
    39    10    32    1
    40    32    33    1
    41    10     1   ar
    42     8     3   ar
    43    17    13   ar
    44    30    24   ar
    45    44    45    1
    46    11    12    1
    47    22    23    1
    48    17    18    1
@<TRIPOS>MOLECULE
*****
 45 48 0 0 0
SMALL
GASTEIGER

@<TRIPOS>ATOM
      1 C         144.2985  142.2976  162.3947 C.ar    1  UNL1        0.1737
      2 C         144.2015  141.9099  160.9489 C.ar    1  UNL1        0.0593
      3 C         143.6216  140.5804  160.5662 C.ar    1  UNL1        0.0890
      4 N         143.5246  140.1927  159.1205 N.ar    1  UNL1       -0.2238
      5 C         142.9447  138.8634  158.7378 C.ar    1  UNL1        0.2000
      6 N         142.4618  137.9217  159.8009 N.ar    1  UNL1       -0.2089
      7 C         142.5588  138.3094  161.2466 C.ar    1  UNL1        0.1364
      8 C         143.1387  139.6388  161.6293 C.ar    1  UNL1        0.0527
      9 C         143.2357  140.0266  163.0751 C.ar    1  UNL1        0.0443
     10 C         143.8156  141.3559  163.4578 C.ar    1  UNL1        0.1726
     11 N         142.0759  137.3678  162.3097 N.pl3   1  UNL1       -0.2837
     12 H         142.6148  136.5801  162.5513 H       1  UNL1        0.1550
     13 C         140.7720  137.6263  163.0046 C.ar    1  UNL1        0.1276
     14 C         140.6052  138.1102  164.4146 C.ar    1  UNL1        0.0507
     15 C         139.1360  138.2293  164.6930 C.ar    1  UNL1        0.0903
     16 N         138.3949  137.8189  163.4551 N.ar    1  UNL1       -0.1755
     17 N         139.4060  137.4463  162.4116 N.ar    1  UNL1       -0.2631
     18 H         139.2078  137.1377  161.4980 H       1  UNL1        0.1903
     19 C         138.5167  138.6796  165.9829 C.3     1  UNL1        0.1328
     20 C         139.1778  139.7507  166.7985 C.2     1  UNL1        0.2323
     21 O         139.3261  141.1349  166.2397 O.2     1  UNL1       -0.2744
     22 N         139.6908  139.4378  168.1729 N.am    1  UNL1       -0.2818
     23 H         139.5935  138.5294  168.5396 H       1  UNL1        0.1549
     24 C         140.3520  140.5090  168.9886 C.ar    1  UNL1        0.0804
     25 C         139.5166  141.4875  169.7599 C.ar    1  UNL1        0.0171
     26 C         140.1778  142.5588  170.5756 C.ar    1  UNL1        0.0037
     27 C         141.6743  142.6515  170.6200 C.ar    1  UNL1        0.0321
     28 C         142.5096  141.6730  169.8487 C.ar    1  UNL1        0.1686
     29 F         144.0061  141.7658  169.8930 F       1  UNL1       -0.2018
     30 C         141.8484  140.6018  169.0330 C.ar    1  UNL1        0.1807
     31 F         142.6837  139.6234  168.2617 F       1  UNL1       -0.2005
     32 O         143.9126  141.7437  164.9036 O.3     1  UNL1       -0.4684
     33 C         142.6677  141.8752  165.7299 C.3     1  UNL1        0.2526
     34 O         144.8784  143.6270  162.7774 O.3     1  UNL1       -0.4723
     35 C         144.0028  144.8444  162.8149 C.3     1  UNL1        0.2070
     36 C         142.8582  144.9154  163.7816 C.3     1  UNL1        0.0646
     37 C         141.4589  145.1032  163.2748 C.3     1  UNL1        0.0760
     38 N         140.4222  144.0488  163.5264 N.3     1  UNL1       -0.2705
     39 C         140.5022  142.7326  162.8114 C.3     1  UNL1        0.0722
     40 C         139.3912  142.4317  160.4821 C.3     1  UNL1        0.0015
     41 C         140.6098  142.6970  161.3156 C.3     1  UNL1        0.0173
     42 C         139.3055  144.3104  164.4932 C.3     1  UNL1        0.1042
     43 C         137.8799  144.1834  164.0445 C.3     1  UNL1        0.1544
     44 O         137.5039  144.5293  162.6342 O.3     1  UNL1       -0.3805
     45 H         137.6360  145.4790  162.4880 H       1  UNL1        0.2105
@<TRIPOS>BOND
     1    40    41    1
     2    41    39    1
     3    39    38    1
     4    38    42    1
     5    42    43    1
     6    43    44    1
     7    38    37    1
     8    37    36    1
     9    36    35    1
    10    35    34    1
    11    34     1    1
    12     1     2   ar
    13     2     3   ar
    14     3     4   ar
    15     4     5   ar
    16     5     6   ar
    17     6     7   ar
    18     7    11    1
    19    11    13    1
    20    13    14   ar
    21    14    15   ar
    22    15    19    1
    23    19    20    1
    24    20    21    2
    25    20    22   am
    26    22    24    1
    27    24    25   ar
    28    25    26   ar
    29    26    27   ar
    30    27    28   ar
    31    28    29    1
    32    28    30   ar
    33    30    31    1
    34    15    16   ar
    35    16    17   ar
    36     7     8   ar
    37     8     9   ar
    38     9    10   ar
    39    10    32    1
    40    32    33    1
    41    10     1   ar
    42     8     3   ar
    43    17    13   ar
    44    30    24   ar
    45    44    45    1
    46    11    12    1
    47    22    23    1
    48    17    18    1
@<TRIPOS>MOLECULE
*****
 45 48 0 0 0
SMALL
GASTEIGER

@<TRIPOS>ATOM
      1 C         139.9679  143.0772  159.7941 C.ar    1  UNL1        0.1737
      2 C         138.7541  142.2557  160.1131 C.ar    1  UNL1        0.0593
      3 C         138.9103  140.8543  160.6248 C.ar    1  UNL1        0.0890
      4 N         137.6965  140.0327  160.9438 N.ar    1  UNL1       -0.2238
      5 C         137.8527  138.6314  161.4555 C.ar    1  UNL1        0.2000
      6 N         139.2226  138.0516  161.6482 N.ar    1  UNL1       -0.2089
      7 C         140.4364  138.8732  161.3292 C.ar    1  UNL1        0.1364
      8 C         140.2802  140.2745  160.8175 C.ar    1  UNL1        0.0527
      9 C         141.4940  141.0961  160.4985 C.ar    1  UNL1        0.0443
     10 C         141.3378  142.4974  159.9868 C.ar    1  UNL1        0.1726
     11 N         141.8063  138.2934  161.5219 N.pl3   1  UNL1       -0.2837
     12 H         142.2019  137.7226  160.8241 H       1  UNL1        0.1550
     13 C         142.5735  138.5832  162.7778 C.ar    1  UNL1        0.1276
     14 C         142.3373  137.9562  164.1199 C.ar    1  UNL1        0.0507
     15 C         143.3295  138.5364  165.0838 C.ar    1  UNL1        0.0903
     16 N         144.1790  139.5221  164.3373 N.ar    1  UNL1       -0.1755
     17 N         143.7118  139.5510  162.9123 N.ar    1  UNL1       -0.2631
     18 H         144.0864  140.1074  162.1917 H       1  UNL1        0.1903
     19 C         143.4510  138.1916  166.5385 C.3     1  UNL1        0.1328
     20 C         142.7451  139.0234  167.5679 C.2     1  UNL1        0.2323
     21 O         143.2107  139.0063  168.9938 O.2     1  UNL1       -0.2744
     22 N         141.5736  139.8722  167.1715 N.am    1  UNL1       -0.2818
     23 H         141.2681  139.8834  166.2357 H       1  UNL1        0.1549
     24 C         140.8677  140.7041  168.2010 C.ar    1  UNL1        0.0804
     25 C         139.7317  140.1196  168.9872 C.ar    1  UNL1        0.0171
     26 C         139.0258  140.9514  170.0166 C.ar    1  UNL1        0.0037
     27 C         139.4559  142.3678  170.2599 C.ar    1  UNL1        0.0321
     28 C         140.5919  142.9522  169.4738 C.ar    1  UNL1        0.1686
     29 F         141.0219  144.3685  169.7171 F       1  UNL1       -0.2018
     30 C         141.2978  142.1204  168.4443 C.ar    1  UNL1        0.1807
     31 F         142.4337  142.7048  167.6582 F       1  UNL1       -0.2005
     32 O         142.5516  143.3190  159.6678 O.3     1  UNL1       -0.4684
     33 C         142.9589  143.5322  158.2399 C.3     1  UNL1        0.2526
     34 O         139.8118  144.4786  159.2824 O.3     1  UNL1       -0.4723
     35 C         140.1353  145.6422  160.1719 C.3     1  UNL1        0.2070
     36 C         140.5162  145.4085  161.6038 C.3     1  UNL1        0.0646
     37 C         139.4910  145.5645  162.6876 C.3     1  UNL1        0.0760
     38 N         139.1733  144.4102  163.5912 N.3     1  UNL1       -0.2705
     39 C         140.2102  143.8981  164.5466 C.3     1  UNL1        0.0722
     40 C         142.7085  143.4475  163.9938 C.3     1  UNL1        0.0015
     41 C         141.2868  142.9737  164.0602 C.3     1  UNL1        0.0173
     42 C         137.8187  143.7678  163.5395 C.3     1  UNL1        0.1042
     43 C         137.6776  142.2945  163.7828 C.3     1  UNL1        0.1544
     44 O         136.5654  141.5295  163.1286 O.3     1  UNL1       -0.3805
     45 H         135.7137  141.8343  163.4788 H       1  UNL1        0.2105
@<TRIPOS>BOND
     1    40    41    1
     2    41    39    1
     3    39    38    1
     4    38    42    1
     5    42    43    1
     6    43    44    1
     7    38    37    1
     8    37    36    1
     9    36    35    1
    10    35    34    1
    11    34     1    1
    12     1     2   ar
    13     2     3   ar
    14     3     4   ar
    15     4     5   ar
    16     5     6   ar
    17     6     7   ar
    18     7    11    1
    19    11    13    1
    20    13    14   ar
    21    14    15   ar
    22    15    19    1
    23    19    20    1
    24    20    21    2
    25    20    22   am
    26    22    24    1
    27    24    25   ar
    28    25    26   ar
    29    26    27   ar
    30    27    28   ar
    31    28    29    1
    32    28    30   ar
    33    30    31    1
    34    15    16   ar
    35    16    17   ar
    36     7     8   ar
    37     8     9   ar
    38     9    10   ar
    39    10    32    1
    40    32    33    1
    41    10     1   ar
    42     8     3   ar
    43    17    13   ar
    44    30    24   ar
    45    44    45    1
    46    11    12    1
    47    22    23    1
    48    17    18    1
@<TRIPOS>MOLECULE
*****
 45 48 0 0 0
SMALL
GASTEIGER

@<TRIPOS>ATOM
      1 C         140.1419  143.2191  160.3236 C.ar    1  UNL1        0.1737
      2 C         141.4135  143.0622  159.5436 C.ar    1  UNL1        0.0593
      3 C         142.0753  141.7193  159.4504 C.ar    1  UNL1        0.0890
      4 N         143.3468  141.5623  158.6704 N.ar    1  UNL1       -0.2238
      5 C         144.0086  140.2194  158.5772 C.ar    1  UNL1        0.2000
      6 N         143.3987  139.0335  159.2639 N.ar    1  UNL1       -0.2089
      7 C         142.1271  139.1904  160.0439 C.ar    1  UNL1        0.1364
      8 C         141.4654  140.5333  160.1371 C.ar    1  UNL1        0.0527
      9 C         140.1937  140.6903  160.9171 C.ar    1  UNL1        0.0443
     10 C         139.5320  142.0332  161.0103 C.ar    1  UNL1        0.1726
     11 N         141.5173  138.0045  160.7306 N.pl3   1  UNL1       -0.2837
     12 H         141.0640  137.3087  160.2017 H       1  UNL1        0.1550
     13 C         141.5980  137.8786  162.2231 C.ar    1  UNL1        0.1276
     14 C         142.7230  138.3627  163.0892 C.ar    1  UNL1        0.0507
     15 C         142.3881  138.0298  164.5130 C.ar    1  UNL1        0.0903
     16 N         141.0562  137.3399  164.5269 N.ar    1  UNL1       -0.1755
     17 N         140.5679  137.2465  163.1117 N.ar    1  UNL1       -0.2631
     18 H         139.7202  136.8414  162.8176 H       1  UNL1        0.1903
     19 C         143.2363  138.3334  165.7124 C.3     1  UNL1        0.1328
     20 C         142.6406  139.0430  166.8920 C.2     1  UNL1        0.2323
     21 O         143.2462  138.8730  168.2538 O.2     1  UNL1       -0.2744
     22 N         141.4393  139.9226  166.7099 N.am    1  UNL1       -0.2818
     23 H         141.0418  140.0342  165.8161 H       1  UNL1        0.1549
     24 C         140.8436  140.6323  167.8895 C.ar    1  UNL1        0.0804
     25 C         139.7142  140.0038  168.6510 C.ar    1  UNL1        0.0171
     26 C         139.1185  140.7134  169.8306 C.ar    1  UNL1        0.0037
     27 C         139.6521  142.0515  170.2489 C.ar    1  UNL1        0.0321
     28 C         140.7814  142.6799  169.4874 C.ar    1  UNL1        0.1686
     29 F         141.3150  144.0179  169.9057 F       1  UNL1       -0.2018
     30 C         141.3772  141.9703  168.3078 C.ar    1  UNL1        0.1807
     31 F         142.5064  142.5987  167.5464 F       1  UNL1       -0.2005
     32 O         138.2603  142.1902  161.7903 O.3     1  UNL1       -0.4684
     33 C         137.6550  141.0060  162.4840 C.3     1  UNL1        0.2526
     34 O         139.4801  144.5621  160.4168 O.3     1  UNL1       -0.4723
     35 C         139.4585  145.2984  161.7235 C.3     1  UNL1        0.2070
     36 C         140.7444  145.7419  162.3557 C.3     1  UNL1        0.0646
     37 C         141.8078  144.7346  162.6790 C.3     1  UNL1        0.0760
     38 N         141.9803  144.2523  164.0887 N.3     1  UNL1       -0.2705
     39 C         143.3552  144.1241  164.6746 C.3     1  UNL1        0.0722
     40 C         144.3107  141.7138  164.5085 C.3     1  UNL1        0.0015
     41 C         144.3342  143.1526  164.0849 C.3     1  UNL1        0.0173
     42 C         140.7779  143.8981  164.9127 C.3     1  UNL1        0.1042
     43 C         140.1312  142.5538  164.7565 C.3     1  UNL1        0.1544
     44 O         140.9302  141.3922  164.2444 O.3     1  UNL1       -0.3805
     45 H         141.1866  141.5570  163.3235 H       1  UNL1        0.2105
@<TRIPOS>BOND
     1    40    41    1
     2    41    39    1
     3    39    38    1
     4    38    42    1
     5    42    43    1
     6    43    44    1
     7    38    37    1
     8    37    36    1
     9    36    35    1
    10    35    34    1
    11    34     1    1
    12     1     2   ar
    13     2     3   ar
    14     3     4   ar
    15     4     5   ar
    16     5     6   ar
    17     6     7   ar
    18     7    11    1
    19    11    13    1
    20    13    14   ar
    21    14    15   ar
    22    15    19    1
    23    19    20    1
    24    20    21    2
    25    20    22   am
    26    22    24    1
    27    24    25   ar
    28    25    26   ar
    29    26    27   ar
    30    27    28   ar
    31    28    29    1
    32    28    30   ar
    33    30    31    1
    34    15    16   ar
    35    16    17   ar
    36     7     8   ar
    37     8     9   ar
    38     9    10   ar
    39    10    32    1
    40    32    33    1
    41    10     1   ar
    42     8     3   ar
    43    17    13   ar
    44    30    24   ar
    45    44    45    1
    46    11    12    1
    47    22    23    1
    48    17    18    1
@<TRIPOS>MOLECULE
*****
 45 48 0 0 0
SMALL
GASTEIGER

@<TRIPOS>ATOM
      1 C         138.7173  142.0298  162.1407 C.ar    1  UNL1        0.1737
      2 C         138.6711  140.7110  162.8537 C.ar    1  UNL1        0.0593
      3 C         139.8357  139.7696  162.7656 C.ar    1  UNL1        0.0890
      4 N         139.7896  138.4507  163.4786 N.ar    1  UNL1       -0.2238
      5 C         140.9541  137.5095  163.3906 C.ar    1  UNL1        0.2000
      6 N         142.1648  137.8871  162.5895 N.ar    1  UNL1       -0.2089
      7 C         142.2110  139.2060  161.8766 C.ar    1  UNL1        0.1364
      8 C         141.0464  140.1472  161.9646 C.ar    1  UNL1        0.0527
      9 C         141.0925  141.4662  161.2516 C.ar    1  UNL1        0.0443
     10 C         139.9280  142.4075  161.3397 C.ar    1  UNL1        0.1726
     11 N         143.4217  139.5836  161.0756 N.pl3   1  UNL1       -0.2837
     12 H         144.1865  140.0201  161.5156 H       1  UNL1        0.1550
     13 C         143.4670  139.2961  159.6041 C.ar    1  UNL1        0.1276
     14 C         142.8057  138.1423  158.9104 C.ar    1  UNL1        0.0507
     15 C         143.1116  138.2451  157.4454 C.ar    1  UNL1        0.0903
     16 N         143.9620  139.4625  157.2338 N.ar    1  UNL1       -0.1755
     17 N         144.1817  140.1121  158.5679 N.ar    1  UNL1       -0.2631
     18 H         144.7033  140.9303  158.7343 H       1  UNL1        0.1903
     19 C         142.6484  137.2970  156.3793 C.3     1  UNL1        0.1328
     20 C         143.2146  135.9096  156.3119 C.2     1  UNL1        0.2323
     21 O         144.2464  135.5701  155.2774 O.2     1  UNL1       -0.2744
     22 N         142.7490  134.8618  157.2790 N.am    1  UNL1       -0.2818
     23 H         142.0718  135.0847  157.9579 H       1  UNL1        0.1549
     24 C         143.3152  133.4744  157.2116 C.ar    1  UNL1        0.0804
     25 C         144.5976  133.1524  157.9200 C.ar    1  UNL1        0.0171
     26 C         145.1638  131.7650  157.8526 C.ar    1  UNL1        0.0037
     27 C         144.4476  130.6995  157.0768 C.ar    1  UNL1        0.0321
     28 C         143.1652  131.0215  156.3685 C.ar    1  UNL1        0.1686
     29 F         142.4490  129.9560  155.5927 F       1  UNL1       -0.2018
     30 C         142.5990  132.4089  156.4358 C.ar    1  UNL1        0.1807
     31 F         141.3166  132.7308  155.7275 F       1  UNL1       -0.2005
     32 O         139.9741  143.7264  160.6267 O.3     1  UNL1       -0.4684
     33 C         141.2798  144.2551  160.1113 C.3     1  UNL1        0.2526
     34 O         137.5527  142.9712  162.2287 O.3     1  UNL1       -0.4723
     35 C         137.6509  144.2091  163.0701 C.3     1  UNL1        0.2070
     36 C         137.9176  144.0964  164.5419 C.3     1  UNL1        0.0646
     37 C         139.1838  144.6558  165.1196 C.3     1  UNL1        0.0760
     38 N         140.5133  144.1651  164.6282 N.3     1  UNL1       -0.2705
     39 C         141.0041  142.8045  165.0254 C.3     1  UNL1        0.0722
     40 C         139.6927  141.0356  166.4043 C.3     1  UNL1        0.0015
     41 C         140.6091  142.2219  166.3501 C.3     1  UNL1        0.0173
     42 C         141.3522  145.0351  163.7396 C.3     1  UNL1        0.1042
     43 C         142.8484  144.9700  163.8222 C.3     1  UNL1        0.1544
     44 O         143.6845  145.4468  162.6718 O.3     1  UNL1       -0.3805
     45 H         143.5390  144.8702  161.9055 H       1  UNL1        0.2105
@<TRIPOS>BOND
     1    40    41    1
     2    41    39    1
     3    39    38    1
     4    38    42    1
     5    42    43    1
     6    43    44    1
     7    38    37    1
     8    37    36    1
     9    36    35    1
    10    35    34    1
    11    34     1    1
    12     1     2   ar
    13     2     3   ar
    14     3     4   ar
    15     4     5   ar
    16     5     6   ar
    17     6     7   ar
    18     7    11    1
    19    11    13    1
    20    13    14   ar
    21    14    15   ar
    22    15    19    1
    23    19    20    1
    24    20    21    2
    25    20    22   am
    26    22    24    1
    27    24    25   ar
    28    25    26   ar
    29    26    27   ar
    30    27    28   ar
    31    28    29    1
    32    28    30   ar
    33    30    31    1
    34    15    16   ar
    35    16    17   ar
    36     7     8   ar
    37     8     9   ar
    38     9    10   ar
    39    10    32    1
    40    32    33    1
    41    10     1   ar
    42     8     3   ar
    43    17    13   ar
    44    30    24   ar
    45    44    45    1
    46    11    12    1
    47    22    23    1
    48    17    18    1
@<TRIPOS>MOLECULE
*****
 45 48 0 0 0
SMALL
GASTEIGER

@<TRIPOS>ATOM
      1 C         144.2888  139.4536  163.5514 C.ar    1  UNL1        0.1737
      2 C         143.6766  138.4701  162.5986 C.ar    1  UNL1        0.0593
      3 C         143.5782  138.8016  161.1389 C.ar    1  UNL1        0.0890
      4 N         142.9660  137.8180  160.1861 N.ar    1  UNL1       -0.2238
      5 C         142.8676  138.1495  158.7266 C.ar    1  UNL1        0.2000
      6 N         143.3814  139.4645  158.2198 N.ar    1  UNL1       -0.2089
      7 C         143.9936  140.4480  159.1726 C.ar    1  UNL1        0.1364
      8 C         144.0920  140.1166  160.6321 C.ar    1  UNL1        0.0527
      9 C         144.7042  141.1001  161.5850 C.ar    1  UNL1        0.0443
     10 C         144.8026  140.7686  163.0446 C.ar    1  UNL1        0.1726
     11 N         144.5074  141.7630  158.6658 N.pl3   1  UNL1       -0.2837
     12 H         145.4713  141.8873  158.5085 H       1  UNL1        0.1550
     13 C         143.5526  142.8886  158.3987 C.ar    1  UNL1        0.1276
     14 C         142.5784  143.4701  159.3799 C.ar    1  UNL1        0.0507
     15 C         141.8281  144.5713  158.6910 C.ar    1  UNL1        0.0903
     16 N         142.3386  144.6704  157.2840 N.ar    1  UNL1       -0.1755
     17 N         143.4044  143.6305  157.1033 N.ar    1  UNL1       -0.2631
     18 H         143.9167  143.4640  156.2793 H       1  UNL1        0.1903
     19 C         140.7556  145.4237  159.3018 C.3     1  UNL1        0.1328
     20 C         140.0633  144.9748  160.5544 C.2     1  UNL1        0.2323
     21 O         139.4230  145.9844  161.4604 O.2     1  UNL1       -0.2744
     22 N         140.0113  143.5164  160.9011 N.am    1  UNL1       -0.2818
     23 H         140.4316  142.8538  160.3065 H       1  UNL1        0.1549
     24 C         139.3190  143.0674  162.1538 C.ar    1  UNL1        0.0804
     25 C         137.9870  142.3825  162.0703 C.ar    1  UNL1        0.0171
     26 C         137.2947  141.9335  163.3229 C.ar    1  UNL1        0.0037
     27 C         137.9343  142.1696  164.6591 C.ar    1  UNL1        0.0321
     28 C         139.2662  142.8546  164.7426 C.ar    1  UNL1        0.1686
     29 F         139.9057  143.0906  166.0787 F       1  UNL1       -0.2018
     30 C         139.9585  143.3035  163.4899 C.ar    1  UNL1        0.1807
     31 F         141.2903  143.9884  163.5734 F       1  UNL1       -0.2005
     32 O         145.4148  141.7522  163.9975 O.3     1  UNL1       -0.4684
     33 C         144.5851  142.8687  164.5587 C.3     1  UNL1        0.2526
     34 O         144.3872  139.1222  165.0110 O.3     1  UNL1       -0.4723
     35 C         143.2957  139.5415  165.9506 C.3     1  UNL1        0.2070
     36 C         141.9446  138.8955  165.8666 C.3     1  UNL1        0.0646
     37 C         140.8479  139.5498  165.0798 C.3     1  UNL1        0.0760
     38 N         139.7372  138.7198  164.5078 N.3     1  UNL1       -0.2705
     39 C         139.0528  137.6928  165.3604 C.3     1  UNL1        0.0722
     40 C         138.2445  139.2365  167.2876 C.3     1  UNL1        0.0015
     41 C         137.9867  138.1119  166.3290 C.3     1  UNL1        0.0173
     42 C         139.3108  138.9167  163.0832 C.3     1  UNL1        0.1042
     43 C         139.8614  138.0298  162.0061 C.3     1  UNL1        0.1544
     44 O         140.8584  136.9631  162.3497 O.3     1  UNL1       -0.3805
     45 H         141.6809  137.3760  162.6563 H       1  UNL1        0.2105
@<TRIPOS>BOND
     1    40    41    1
     2    41    39    1
     3    39    38    1
     4    38    42    1
     5    42    43    1
     6    43    44    1
     7    38    37    1
     8    37    36    1
     9    36    35    1
    10    35    34    1
    11    34     1    1
    12     1     2   ar
    13     2     3   ar
    14     3     4   ar
    15     4     5   ar
    16     5     6   ar
    17     6     7   ar
    18     7    11    1
    19    11    13    1
    20    13    14   ar
    21    14    15   ar
    22    15    19    1
    23    19    20    1
    24    20    21    2
    25    20    22   am
    26    22    24    1
    27    24    25   ar
    28    25    26   ar
    29    26    27   ar
    30    27    28   ar
    31    28    29    1
    32    28    30   ar
    33    30    31    1
    34    15    16   ar
    35    16    17   ar
    36     7     8   ar
    37     8     9   ar
    38     9    10   ar
    39    10    32    1
    40    32    33    1
    41    10     1   ar
    42     8     3   ar
    43    17    13   ar
    44    30    24   ar
    45    44    45    1
    46    11    12    1
    47    22    23    1
    48    17    18    1
