@<TRIPOS>MOLECULE
*****
 37 41 0 0 0
SMALL
GASTEIGER

@<TRIPOS>ATOM
      1 C         140.0566  139.4386  158.9292 C.ar    1  UNL1        0.1034
      2 C         141.1173  139.5563  159.9833 C.ar    1  UNL1        0.0201
      3 C         140.7454  139.4727  161.4341 C.ar    1  UNL1        0.0222
      4 C         139.3129  139.2713  161.8308 C.ar    1  UNL1        0.1028
      5 N         138.2523  139.1535  160.7767 N.ar    1  UNL1       -0.1483
      6 N         138.6240  139.2371  159.3259 N.ar    1  UNL1       -0.1504
      7 C         138.9411  139.1876  163.2815 C.ar    1  UNL1        0.0233
      8 C         139.0203  137.8741  164.0015 C.ar    1  UNL1        0.0014
      9 C         138.6484  137.7905  165.4523 C.ar    1  UNL1        0.0039
     10 C         138.1975  139.0204  166.1831 C.ar    1  UNL1        0.0714
     11 C         138.1184  140.3339  165.4631 C.ar    1  UNL1        0.0078
     12 C         138.4902  140.4175  164.0123 C.ar    1  UNL1        0.0729
     13 C         137.8257  138.9367  167.6338 C.3     1  UNL1        0.4186
     14 F         137.4539  138.8530  169.0847 F       1  UNL1       -0.1659
     15 F         138.8146  140.0194  167.9497 F       1  UNL1       -0.1659
     16 F         136.8369  137.8540  167.3180 F       1  UNL1       -0.1659
     17 C         138.4111  141.7311  163.2923 C.3     1  UNL1        0.4186
     18 F         138.3319  143.0446  162.5723 F       1  UNL1       -0.1659
     19 F         139.8390  142.0149  163.6533 F       1  UNL1       -0.1659
     20 F         136.9831  141.4472  162.9314 F       1  UNL1       -0.1659
     21 C         140.4284  139.5222  157.4784 C.3     1  UNL1        0.1538
     22 C         143.2331  134.1622  155.4387 C.ar    1  UNL1        0.1645
     23 N         144.0871  135.3750  155.2160 N.ar    1  UNL1       -0.2249
     24 C         143.3382  136.5697  155.7275 C.ar    1  UNL1        0.1035
     25 C         143.6852  138.0283  155.7722 C.ar    1  UNL1        0.0394
     26 C         142.7153  139.0124  156.3558 C.ar    1  UNL1        0.0779
     27 N         141.3983  138.5380  156.8948 N.ar    1  UNL1       -0.3178
     28 C         141.0513  137.0794  156.8501 C.ar    1  UNL1        0.0971
     29 C         142.0212  136.0953  156.2665 C.ar    1  UNL1        0.1178
     30 N         141.9563  134.6073  156.0880 N.ar    1  UNL1       -0.2235
     31 F         145.0769  132.5835  157.2018 F       1  UNL1       -0.2041
     32 C         144.5146  131.9625  155.9575 C.ar    1  UNL1        0.1430
     33 C         144.8742  130.5521  155.5947 C.ar    1  UNL1        0.0297
     34 C         144.3120  129.9311  154.3505 C.ar    1  UNL1        0.0023
     35 C         143.3901  130.7205  153.4690 C.ar    1  UNL1        0.0002
     36 C         143.0305  132.1308  153.8317 C.ar    1  UNL1        0.0053
     37 C         143.5927  132.7518  155.0760 C.ar    1  UNL1        0.0632
@<TRIPOS>BOND
     1    31    32    1
     2    32    33   ar
     3    33    34   ar
     4    34    35   ar
     5    35    36   ar
     6    36    37   ar
     7    37    22    1
     8    22    23   ar
     9    23    24   ar
    10    24    25   ar
    11    25    26   ar
    12    26    27   ar
    13    27    21    1
    14    21     1    1
    15     1     2   ar
    16     2     3   ar
    17     3     4   ar
    18     4     7    1
    19     7     8   ar
    20     8     9   ar
    21     9    10   ar
    22    10    13    1
    23    13    14    1
    24    13    15    1
    25    13    16    1
    26    10    11   ar
    27    11    12   ar
    28    12    17    1
    29    17    18    1
    30    17    19    1
    31    17    20    1
    32     4     5   ar
    33     5     6   ar
    34    27    28   ar
    35    28    29   ar
    36    29    30   ar
    37    37    32   ar
    38    30    22   ar
    39    29    24    1
    40     6     1   ar
    41    12     7   ar
@<TRIPOS>MOLECULE
*****
 37 41 0 0 0
SMALL
GASTEIGER

@<TRIPOS>ATOM
      1 C         142.7592  141.2776  161.2354 C.ar    1  UNL1        0.1034
      2 C         144.0121  140.9152  161.9763 C.ar    1  UNL1        0.0201
      3 C         143.9924  140.7999  163.4718 C.ar    1  UNL1        0.0222
      4 C         142.7198  141.0471  164.2263 C.ar    1  UNL1        0.1028
      5 N         141.4669  141.4096  163.4855 N.ar    1  UNL1       -0.1483
      6 N         141.4866  141.5248  161.9901 N.ar    1  UNL1       -0.1504
      7 C         142.7001  140.9319  165.7217 C.ar    1  UNL1        0.0233
      8 C         143.0032  142.1310  166.5705 C.ar    1  UNL1        0.0014
      9 C         142.9834  142.0156  168.0659 C.ar    1  UNL1        0.0039
     10 C         142.6607  140.7013  168.7126 C.ar    1  UNL1        0.0714
     11 C         142.3576  139.5022  167.8639 C.ar    1  UNL1        0.0078
     12 C         142.3773  139.6175  166.3685 C.ar    1  UNL1        0.0729
     13 C         142.6410  140.5860  170.2080 C.3     1  UNL1        0.4186
     14 F         142.6213  140.4708  171.7035 F       1  UNL1       -0.1659
     15 F         141.4889  139.6296  170.1191 F       1  UNL1       -0.1659
     16 F         143.7930  141.5425  170.2969 F       1  UNL1       -0.1659
     17 C         142.0742  138.4184  165.5198 C.3     1  UNL1        0.4186
     18 F         141.7711  137.2193  164.6711 F       1  UNL1       -0.1659
     19 F         143.5217  138.0265  165.5565 F       1  UNL1       -0.1659
     20 F         140.6268  138.8102  165.4831 F       1  UNL1       -0.1659
     21 C         142.7789  141.3929  159.7400 C.3     1  UNL1        0.1538
     22 C         142.1137  136.0124  156.3689 C.ar    1  UNL1        0.1645
     23 N         140.8575  136.8319  156.3918 N.ar    1  UNL1       -0.2249
     24 C         141.1228  138.0643  157.2048 C.ar    1  UNL1        0.1035
     25 C         140.2547  139.2316  157.5704 C.ar    1  UNL1        0.0394
     26 C         140.8068  140.3411  158.4154 C.ar    1  UNL1        0.0779
     27 N         142.2269  140.2833  158.8949 N.ar    1  UNL1       -0.3178
     28 C         143.0950  139.1159  158.5293 C.ar    1  UNL1        0.0971
     29 C         142.5429  138.0064  157.6843 C.ar    1  UNL1        0.1178
     30 N         143.1553  136.7383  157.1676 N.ar    1  UNL1       -0.2235
     31 F         143.1112  133.6288  157.8931 F       1  UNL1       -0.2041
     32 C         142.7949  133.5060  156.4320 C.ar    1  UNL1        0.1430
     33 C         142.9774  132.1914  155.7330 C.ar    1  UNL1        0.0297
     34 C         142.6611  132.0687  154.2719 C.ar    1  UNL1        0.0023
     35 C         142.1623  133.2604  153.5098 C.ar    1  UNL1        0.0002
     36 C         141.9798  134.5750  154.2088 C.ar    1  UNL1        0.0053
     37 C         142.2961  134.6978  155.6699 C.ar    1  UNL1        0.0632
@<TRIPOS>BOND
     1    31    32    1
     2    32    33   ar
     3    33    34   ar
     4    34    35   ar
     5    35    36   ar
     6    36    37   ar
     7    37    22    1
     8    22    23   ar
     9    23    24   ar
    10    24    25   ar
    11    25    26   ar
    12    26    27   ar
    13    27    21    1
    14    21     1    1
    15     1     2   ar
    16     2     3   ar
    17     3     4   ar
    18     4     7    1
    19     7     8   ar
    20     8     9   ar
    21     9    10   ar
    22    10    13    1
    23    13    14    1
    24    13    15    1
    25    13    16    1
    26    10    11   ar
    27    11    12   ar
    28    12    17    1
    29    17    18    1
    30    17    19    1
    31    17    20    1
    32     4     5   ar
    33     5     6   ar
    34    27    28   ar
    35    28    29   ar
    36    29    30   ar
    37    37    32   ar
    38    30    22   ar
    39    29    24    1
    40     6     1   ar
    41    12     7   ar
@<TRIPOS>MOLECULE
*****
 37 41 0 0 0
SMALL
GASTEIGER

@<TRIPOS>ATOM
      1 C         138.7910  141.7853  161.5939 C.ar    1  UNL1        0.1034
      2 C         137.7081  142.0416  162.5997 C.ar    1  UNL1        0.0201
      3 C         137.9974  141.9027  164.0650 C.ar    1  UNL1        0.0222
      4 C         139.3696  141.5076  164.5245 C.ar    1  UNL1        0.1028
      5 N         140.4525  141.2514  163.5186 N.ar    1  UNL1       -0.1483
      6 N         140.1632  141.3903  162.0534 N.ar    1  UNL1       -0.1504
      7 C         139.6588  141.3688  165.9897 C.ar    1  UNL1        0.0233
      8 C         140.1647  142.5463  166.7692 C.ar    1  UNL1        0.0014
      9 C         140.4539  142.4074  168.2346 C.ar    1  UNL1        0.0039
     10 C         140.2373  141.0910  168.9203 C.ar    1  UNL1        0.0714
     11 C         139.7314  139.9136  168.1408 C.ar    1  UNL1        0.0078
     12 C         139.4422  140.0524  166.6756 C.ar    1  UNL1        0.0729
     13 C         140.5265  140.9522  170.3856 C.3     1  UNL1        0.4186
     14 F         140.8158  140.8133  171.8509 F       1  UNL1       -0.1659
     15 F         140.0315  142.3493  170.6157 F       1  UNL1       -0.1659
     16 F         141.0216  139.5551  170.1555 F       1  UNL1       -0.1659
     17 C         138.9363  138.8749  165.8960 C.3     1  UNL1        0.4186
     18 F         138.4305  137.6974  165.1165 F       1  UNL1       -0.1659
     19 F         140.3471  138.4895  165.5627 F       1  UNL1       -0.1659
     20 F         137.5255  139.2604  166.2294 F       1  UNL1       -0.1659
     21 C         138.5018  141.9242  160.1286 C.3     1  UNL1        0.1538
     22 C         141.0490  137.4659  156.3349 C.ar    1  UNL1        0.1645
     23 N         141.7254  138.7966  156.1876 N.ar    1  UNL1       -0.2249
     24 C         141.0534  139.7636  157.1169 C.ar    1  UNL1        0.1035
     25 C         141.2946  141.2169  157.3992 C.ar    1  UNL1        0.0394
     26 C         140.4440  141.9370  158.4031 C.ar    1  UNL1        0.0779
     27 N         139.3523  141.2039  159.1247 N.ar    1  UNL1       -0.3178
     28 C         139.1112  139.7507  158.8424 C.ar    1  UNL1        0.0971
     29 C         139.9617  139.0305  157.8385 C.ar    1  UNL1        0.1178
     30 N         139.9590  137.6105  157.3552 N.ar    1  UNL1       -0.2235
     31 F         142.9787  135.5055  157.5320 F       1  UNL1       -0.2041
     32 C         142.3656  135.2309  156.1908 C.ar    1  UNL1        0.1430
     33 C         142.7174  133.9760  155.4482 C.ar    1  UNL1        0.0297
     34 C         142.1044  133.7013  154.1070 C.ar    1  UNL1        0.0023
     35 C         141.1396  134.6815  153.5085 C.ar    1  UNL1        0.0002
     36 C         140.7878  135.9363  154.2511 C.ar    1  UNL1        0.0053
     37 C         141.4008  136.2110  155.5923 C.ar    1  UNL1        0.0632
@<TRIPOS>BOND
     1    31    32    1
     2    32    33   ar
     3    33    34   ar
     4    34    35   ar
     5    35    36   ar
     6    36    37   ar
     7    37    22    1
     8    22    23   ar
     9    23    24   ar
    10    24    25   ar
    11    25    26   ar
    12    26    27   ar
    13    27    21    1
    14    21     1    1
    15     1     2   ar
    16     2     3   ar
    17     3     4   ar
    18     4     7    1
    19     7     8   ar
    20     8     9   ar
    21     9    10   ar
    22    10    13    1
    23    13    14    1
    24    13    15    1
    25    13    16    1
    26    10    11   ar
    27    11    12   ar
    28    12    17    1
    29    17    18    1
    30    17    19    1
    31    17    20    1
    32     4     5   ar
    33     5     6   ar
    34    27    28   ar
    35    28    29   ar
    36    29    30   ar
    37    37    32   ar
    38    30    22   ar
    39    29    24    1
    40     6     1   ar
    41    12     7   ar
@<TRIPOS>MOLECULE
*****
 37 41 0 0 0
SMALL
GASTEIGER

@<TRIPOS>ATOM
      1 C         139.8942  138.6273  161.8842 C.ar    1  UNL1        0.1034
      2 C         139.9247  137.5167  162.8920 C.ar    1  UNL1        0.0201
      3 C         140.2318  137.8165  164.3293 C.ar    1  UNL1        0.0222
      4 C         140.5084  139.2268  164.7588 C.ar    1  UNL1        0.1028
      5 N         140.4778  140.3374  163.7510 N.ar    1  UNL1       -0.1483
      6 N         140.1707  140.0377  162.3137 N.ar    1  UNL1       -0.1504
      7 C         140.8155  139.5265  166.1961 C.ar    1  UNL1        0.0233
      8 C         139.7012  139.8274  167.1541 C.ar    1  UNL1        0.0014
      9 C         140.0084  140.1272  168.5915 C.ar    1  UNL1        0.0039
     10 C         141.4297  140.1260  169.0707 C.ar    1  UNL1        0.0714
     11 C         142.5440  139.8250  168.1126 C.ar    1  UNL1        0.0078
     12 C         142.2369  139.5253  166.6754 C.ar    1  UNL1        0.0729
     13 C         141.7368  140.4257  170.5080 C.3     1  UNL1        0.4186
     14 F         142.0439  140.7254  171.9453 F       1  UNL1       -0.1659
     15 F         143.0001  139.6235  170.4053 F       1  UNL1       -0.1659
     16 F         140.4736  141.2279  170.6106 F       1  UNL1       -0.1659
     17 C         143.3512  139.2244  165.7173 C.3     1  UNL1        0.4186
     18 F         144.4654  138.9235  164.7592 F       1  UNL1       -0.1659
     19 F         143.4689  140.6847  165.3956 F       1  UNL1       -0.1659
     20 F         143.2334  137.7640  166.0390 F       1  UNL1       -0.1659
     21 C         139.5871  138.3276  160.4469 C.3     1  UNL1        0.1538
     22 C         144.0921  140.8517  156.6932 C.ar    1  UNL1        0.1645
     23 N         142.7062  141.1908  156.2305 N.ar    1  UNL1       -0.2249
     24 C         141.7325  140.5525  157.1763 C.ar    1  UNL1        0.1035
     25 C         140.2332  140.5444  157.2192 C.ar    1  UNL1        0.0394
     26 C         139.5180  139.8028  158.3094 C.ar    1  UNL1        0.0779
     27 N         140.3023  139.0692  159.3567 N.ar    1  UNL1       -0.3178
     28 C         141.8016  139.0772  159.3138 C.ar    1  UNL1        0.0971
     29 C         142.5167  139.8188  158.2236 C.ar    1  UNL1        0.1178
     30 N         143.9750  140.0038  157.9250 N.ar    1  UNL1       -0.2235
     31 F         146.0068  142.6271  158.1705 F       1  UNL1       -0.2041
     32 C         146.3280  142.1722  156.7776 C.ar    1  UNL1        0.1430
     33 C         147.6065  142.6050  156.1234 C.ar    1  UNL1        0.0297
     34 C         147.9278  142.1501  154.7306 C.ar    1  UNL1        0.0023
     35 C         146.9705  141.2625  153.9921 C.ar    1  UNL1        0.0002
     36 C         145.6919  140.8297  154.6463 C.ar    1  UNL1        0.0053
     37 C         145.3707  141.2845  156.0390 C.ar    1  UNL1        0.0632
@<TRIPOS>BOND
     1    31    32    1
     2    32    33   ar
     3    33    34   ar
     4    34    35   ar
     5    35    36   ar
     6    36    37   ar
     7    37    22    1
     8    22    23   ar
     9    23    24   ar
    10    24    25   ar
    11    25    26   ar
    12    26    27   ar
    13    27    21    1
    14    21     1    1
    15     1     2   ar
    16     2     3   ar
    17     3     4   ar
    18     4     7    1
    19     7     8   ar
    20     8     9   ar
    21     9    10   ar
    22    10    13    1
    23    13    14    1
    24    13    15    1
    25    13    16    1
    26    10    11   ar
    27    11    12   ar
    28    12    17    1
    29    17    18    1
    30    17    19    1
    31    17    20    1
    32     4     5   ar
    33     5     6   ar
    34    27    28   ar
    35    28    29   ar
    36    29    30   ar
    37    37    32   ar
    38    30    22   ar
    39    29    24    1
    40     6     1   ar
    41    12     7   ar
@<TRIPOS>MOLECULE
*****
 37 41 0 0 0
SMALL
GASTEIGER

@<TRIPOS>ATOM
      1 C         141.5643  140.3811  160.4963 C.ar    1  UNL1        0.1034
      2 C         141.0945  139.1102  161.1399 C.ar    1  UNL1        0.0201
      3 C         140.9317  139.0394  162.6294 C.ar    1  UNL1        0.0222
      4 C         141.2386  140.2395  163.4752 C.ar    1  UNL1        0.1028
      5 N         141.7084  141.5104  162.8317 N.ar    1  UNL1       -0.1483
      6 N         141.8713  141.5812  161.3423 N.ar    1  UNL1       -0.1504
      7 C         141.0757  140.1687  164.9647 C.ar    1  UNL1        0.0233
      8 C         139.7336  140.4213  165.5852 C.ar    1  UNL1        0.0014
      9 C         139.5708  140.3505  167.0747 C.ar    1  UNL1        0.0039
     10 C         140.7500  140.0271  167.9436 C.ar    1  UNL1        0.0714
     11 C         142.0920  139.7746  167.3230 C.ar    1  UNL1        0.0078
     12 C         142.2549  139.8453  165.8336 C.ar    1  UNL1        0.0729
     13 C         140.5871  139.9564  169.4330 C.3     1  UNL1        0.4186
     14 F         140.4242  139.8855  170.9225 F       1  UNL1       -0.1659
     15 F         139.3819  140.8448  169.3434 F       1  UNL1       -0.1659
     16 F         141.7923  139.0679  169.5226 F       1  UNL1       -0.1659
     17 C         143.5969  139.5927  165.2130 C.3     1  UNL1        0.4186
     18 F         144.9390  139.3402  164.5925 F       1  UNL1       -0.1659
     19 F         143.9248  141.0519  165.3282 F       1  UNL1       -0.1659
     20 F         143.2690  138.1336  165.0978 F       1  UNL1       -0.1659
     21 C         141.7272  140.4518  159.0069 C.3     1  UNL1        0.1538
     22 C         142.7386  134.7810  156.2545 C.ar    1  UNL1        0.1645
     23 N         141.4478  135.4072  155.8166 N.ar    1  UNL1       -0.2249
     24 C         141.3107  136.7258  156.5183 C.ar    1  UNL1        0.1035
     25 C         140.2435  137.7790  156.4762 C.ar    1  UNL1        0.0394
     26 C         140.3823  139.0210  157.3057 C.ar    1  UNL1        0.0779
     27 N         141.5884  139.2098  158.1773 N.ar    1  UNL1       -0.3178
     28 C         142.6556  138.1566  158.2194 C.ar    1  UNL1        0.0971
     29 C         142.5168  136.9146  157.3899 C.ar    1  UNL1        0.1178
     30 N         143.3993  135.7127  157.2269 N.ar    1  UNL1       -0.2235
     31 F         144.7917  133.3469  157.9062 F       1  UNL1       -0.2041
     32 C         144.3012  132.7388  156.6257 C.ar    1  UNL1        0.1430
     33 C         144.8372  131.4137  156.1710 C.ar    1  UNL1        0.0297
     34 C         144.3467  130.8056  154.8906 C.ar    1  UNL1        0.0023
     35 C         143.3202  131.5227  154.0647 C.ar    1  UNL1        0.0002
     36 C         142.7841  132.8478  154.5194 C.ar    1  UNL1        0.0053
     37 C         143.2746  133.4559  155.7998 C.ar    1  UNL1        0.0632
@<TRIPOS>BOND
     1    31    32    1
     2    32    33   ar
     3    33    34   ar
     4    34    35   ar
     5    35    36   ar
     6    36    37   ar
     7    37    22    1
     8    22    23   ar
     9    23    24   ar
    10    24    25   ar
    11    25    26   ar
    12    26    27   ar
    13    27    21    1
    14    21     1    1
    15     1     2   ar
    16     2     3   ar
    17     3     4   ar
    18     4     7    1
    19     7     8   ar
    20     8     9   ar
    21     9    10   ar
    22    10    13    1
    23    13    14    1
    24    13    15    1
    25    13    16    1
    26    10    11   ar
    27    11    12   ar
    28    12    17    1
    29    17    18    1
    30    17    19    1
    31    17    20    1
    32     4     5   ar
    33     5     6   ar
    34    27    28   ar
    35    28    29   ar
    36    29    30   ar
    37    37    32   ar
    38    30    22   ar
    39    29    24    1
    40     6     1   ar
    41    12     7   ar
@<TRIPOS>MOLECULE
*****
 37 41 0 0 0
SMALL
GASTEIGER

@<TRIPOS>ATOM
      1 C         140.6969  141.4444  160.1434 C.ar    1  UNL1        0.1034
      2 C         139.4225  141.1227  160.8662 C.ar    1  UNL1        0.0201
      3 C         139.3621  141.2247  162.3616 C.ar    1  UNL1        0.0222
      4 C         140.5760  141.6484  163.1340 C.ar    1  UNL1        0.1028
      5 N         141.8504  141.9701  162.4113 N.ar    1  UNL1       -0.1483
      6 N         141.9109  141.8681  160.9160 N.ar    1  UNL1       -0.1504
      7 C         140.5156  141.7504  164.6293 C.ar    1  UNL1        0.0233
      8 C         140.8575  140.5608  165.4767 C.ar    1  UNL1        0.0014
      9 C         140.7970  140.6629  166.9720 C.ar    1  UNL1        0.0039
     10 C         140.3946  141.9545  167.6199 C.ar    1  UNL1        0.0714
     11 C         140.0527  143.1440  166.7726 C.ar    1  UNL1        0.0078
     12 C         140.1132  143.0420  165.2773 C.ar    1  UNL1        0.0729
     13 C         140.3342  142.0565  169.1152 C.3     1  UNL1        0.4186
     14 F         140.2737  142.1584  170.6106 F       1  UNL1       -0.1659
     15 F         140.9575  143.4191  169.0475 F       1  UNL1       -0.1659
     16 F         139.7109  140.6938  169.1830 F       1  UNL1       -0.1659
     17 C         139.7713  144.2316  164.4300 C.3     1  UNL1        0.4186
     18 F         139.4294  145.4212  163.5826 F       1  UNL1       -0.1659
     19 F         138.3329  143.8063  164.4133 F       1  UNL1       -0.1659
     20 F         141.2096  144.6569  164.4467 F       1  UNL1       -0.1659
     21 C         140.7573  141.3424  158.6481 C.3     1  UNL1        0.1538
     22 C         139.2884  146.8837  155.8388 C.ar    1  UNL1        0.1645
     23 N         138.4085  145.7589  155.3798 N.ar    1  UNL1       -0.2249
     24 C         138.8368  144.5131  156.0971 C.ar    1  UNL1        0.1035
     25 C         138.3324  143.1014  156.0452 C.ar    1  UNL1        0.0394
     26 C         138.9725  142.0445  156.8955 C.ar    1  UNL1        0.0779
     27 N         140.1171  142.3993  157.7978 N.ar    1  UNL1       -0.3178
     28 C         140.6215  143.8110  157.8497 C.ar    1  UNL1        0.0971
     29 C         139.9813  144.8679  156.9993 C.ar    1  UNL1        0.1178
     30 N         140.2604  146.3330  156.8397 N.ar    1  UNL1       -0.2235
     31 F         138.0877  148.9740  157.6246 F       1  UNL1       -0.2041
     32 C         138.6097  149.3541  156.2707 C.ar    1  UNL1        0.1430
     33 C         138.5313  150.7793  155.8097 C.ar    1  UNL1        0.0297
     34 C         139.0532  151.1595  154.4558 C.ar    1  UNL1        0.0023
     35 C         139.6535  150.1144  153.5629 C.ar    1  UNL1        0.0002
     36 C         139.7319  148.6891  154.0239 C.ar    1  UNL1        0.0053
     37 C         139.2100  148.3090  155.3778 C.ar    1  UNL1        0.0632
@<TRIPOS>BOND
     1    31    32    1
     2    32    33   ar
     3    33    34   ar
     4    34    35   ar
     5    35    36   ar
     6    36    37   ar
     7    37    22    1
     8    22    23   ar
     9    23    24   ar
    10    24    25   ar
    11    25    26   ar
    12    26    27   ar
    13    27    21    1
    14    21     1    1
    15     1     2   ar
    16     2     3   ar
    17     3     4   ar
    18     4     7    1
    19     7     8   ar
    20     8     9   ar
    21     9    10   ar
    22    10    13    1
    23    13    14    1
    24    13    15    1
    25    13    16    1
    26    10    11   ar
    27    11    12   ar
    28    12    17    1
    29    17    18    1
    30    17    19    1
    31    17    20    1
    32     4     5   ar
    33     5     6   ar
    34    27    28   ar
    35    28    29   ar
    36    29    30   ar
    37    37    32   ar
    38    30    22   ar
    39    29    24    1
    40     6     1   ar
    41    12     7   ar
@<TRIPOS>MOLECULE
*****
 37 41 0 0 0
SMALL
GASTEIGER

@<TRIPOS>ATOM
      1 C         141.9191  142.2820  161.1060 C.ar    1  UNL1        0.1034
      2 C         142.1120  143.5868  161.8205 C.ar    1  UNL1        0.0201
      3 C         142.1358  143.6245  163.3199 C.ar    1  UNL1        0.0222
      4 C         141.9666  142.3575  164.1047 C.ar    1  UNL1        0.1028
      5 N         141.7737  141.0528  163.3903 N.ar    1  UNL1       -0.1483
      6 N         141.7499  141.0150  161.8910 N.ar    1  UNL1       -0.1504
      7 C         141.9903  142.3953  165.6040 C.ar    1  UNL1        0.0233
      8 C         143.2907  142.2496  166.3375 C.ar    1  UNL1        0.0014
      9 C         143.3144  142.2874  167.8369 C.ar    1  UNL1        0.0039
     10 C         142.0378  142.4709  168.6027 C.ar    1  UNL1        0.0714
     11 C         140.7374  142.6165  167.8693 C.ar    1  UNL1        0.0078
     12 C         140.7137  142.5787  166.3700 C.ar    1  UNL1        0.0729
     13 C         142.0615  142.5086  170.1020 C.3     1  UNL1        0.4186
     14 F         142.0852  142.5464  171.6014 F       1  UNL1       -0.1659
     15 F         143.5511  142.3330  170.0829 F       1  UNL1       -0.1659
     16 F         140.5720  142.6843  170.1212 F       1  UNL1       -0.1659
     17 C         139.4134  142.7244  165.6366 C.3     1  UNL1        0.4186
     18 F         138.1130  142.8701  164.9032 F       1  UNL1       -0.1659
     19 F         139.2334  141.2354  165.6600 F       1  UNL1       -0.1659
     20 F         139.5934  144.2134  165.6132 F       1  UNL1       -0.1659
     21 C         141.8954  142.2443  159.6067 C.3     1  UNL1        0.1538
     22 C         142.0995  136.5413  156.7448 C.ar    1  UNL1        0.1645
     23 N         140.7136  137.1140  156.7803 N.ar    1  UNL1       -0.2249
     24 C         140.7795  138.4449  157.4691 C.ar    1  UNL1        0.1035
     25 C         139.7248  139.4616  157.7914 C.ar    1  UNL1        0.0394
     26 C         140.0968  140.7280  158.5040 C.ar    1  UNL1        0.0779
     27 N         141.5234  140.9777  158.8942 N.ar    1  UNL1       -0.3178
     28 C         142.5781  139.9611  158.5719 C.ar    1  UNL1        0.0971
     29 C         142.2062  138.6946  157.8593 C.ar    1  UNL1        0.1178
     30 N         143.0219  137.5181  157.4116 N.ar    1  UNL1       -0.2235
     31 F         143.4484  134.4682  158.4426 F       1  UNL1       -0.2041
     32 C         143.1681  134.1865  156.9962 C.ar    1  UNL1        0.1430
     33 C         143.5623  132.8684  156.3987 C.ar    1  UNL1        0.0297
     34 C         143.2820  132.5867  154.9523 C.ar    1  UNL1        0.0023
     35 C         142.6076  133.6232  154.1034 C.ar    1  UNL1        0.0002
     36 C         142.2134  134.9414  154.7009 C.ar    1  UNL1        0.0053
     37 C         142.4937  135.2231  156.1473 C.ar    1  UNL1        0.0632
@<TRIPOS>BOND
     1    31    32    1
     2    32    33   ar
     3    33    34   ar
     4    34    35   ar
     5    35    36   ar
     6    36    37   ar
     7    37    22    1
     8    22    23   ar
     9    23    24   ar
    10    24    25   ar
    11    25    26   ar
    12    26    27   ar
    13    27    21    1
    14    21     1    1
    15     1     2   ar
    16     2     3   ar
    17     3     4   ar
    18     4     7    1
    19     7     8   ar
    20     8     9   ar
    21     9    10   ar
    22    10    13    1
    23    13    14    1
    24    13    15    1
    25    13    16    1
    26    10    11   ar
    27    11    12   ar
    28    12    17    1
    29    17    18    1
    30    17    19    1
    31    17    20    1
    32     4     5   ar
    33     5     6   ar
    34    27    28   ar
    35    28    29   ar
    36    29    30   ar
    37    37    32   ar
    38    30    22   ar
    39    29    24    1
    40     6     1   ar
    41    12     7   ar
@<TRIPOS>MOLECULE
*****
 37 41 0 0 0
SMALL
GASTEIGER

@<TRIPOS>ATOM
      1 C         139.1324  140.2164  160.6805 C.ar    1  UNL1        0.1034
      2 C         137.9666  140.6241  161.5318 C.ar    1  UNL1        0.0201
      3 C         138.1729  140.9438  162.9828 C.ar    1  UNL1        0.0222
      4 C         139.5450  140.8557  163.5825 C.ar    1  UNL1        0.1028
      5 N         140.7108  140.4479  162.7312 N.ar    1  UNL1       -0.1483
      6 N         140.5045  140.1283  161.2803 N.ar    1  UNL1       -0.1504
      7 C         139.7512  141.1753  165.0334 C.ar    1  UNL1        0.0233
      8 C         140.1451  142.5623  165.4472 C.ar    1  UNL1        0.0014
      9 C         140.3513  142.8819  166.8982 C.ar    1  UNL1        0.0039
     10 C         140.1637  141.8146  167.9353 C.ar    1  UNL1        0.0714
     11 C         139.7699  140.4276  167.5215 C.ar    1  UNL1        0.0078
     12 C         139.5636  140.1080  166.0706 C.ar    1  UNL1        0.0729
     13 C         140.3700  142.1342  169.3863 C.3     1  UNL1        0.4186
     14 F         140.5762  142.4539  170.8373 F       1  UNL1       -0.1659
     15 F         140.3966  140.6688  169.7053 F       1  UNL1       -0.1659
     16 F         140.3433  143.5996  169.0672 F       1  UNL1       -0.1659
     17 C         139.1698  138.7210  165.6568 C.3     1  UNL1        0.4186
     18 F         138.7759  137.3341  165.2429 F       1  UNL1       -0.1659
     19 F         140.6142  138.3717  165.4529 F       1  UNL1       -0.1659
     20 F         137.7253  139.0704  165.8606 F       1  UNL1       -0.1659
     21 C         138.9262  139.8967  159.2296 C.3     1  UNL1        0.1538
     22 C         139.3674  145.0883  155.5405 C.ar    1  UNL1        0.1645
     23 N         138.0446  144.3958  155.3973 N.ar    1  UNL1       -0.2249
     24 C         138.0480  143.1985  156.3009 C.ar    1  UNL1        0.1035
     25 C         137.0158  142.1454  156.5755 C.ar    1  UNL1        0.0394
     26 C         137.3085  141.0448  157.5517 C.ar    1  UNL1        0.0779
     27 N         138.6335  140.9974  158.2533 N.ar    1  UNL1       -0.3178
     28 C         139.6657  142.0505  157.9788 C.ar    1  UNL1        0.0971
     29 C         139.3729  143.1511  157.0026 C.ar    1  UNL1        0.1178
     30 N         140.1884  144.3190  156.5326 N.ar    1  UNL1       -0.2235
     31 F         138.4743  147.7772  156.5266 F       1  UNL1       -0.2041
     32 C         139.3478  147.6762  155.3114 C.ar    1  UNL1        0.1430
     33 C         139.7748  148.9196  154.5892 C.ar    1  UNL1        0.0297
     34 C         140.6483  148.8187  153.3740 C.ar    1  UNL1        0.0023
     35 C         141.0948  147.4743  152.8809 C.ar    1  UNL1        0.0002
     36 C         140.6679  146.2309  153.6031 C.ar    1  UNL1        0.0053
     37 C         139.7944  146.3318  154.8183 C.ar    1  UNL1        0.0632
@<TRIPOS>BOND
     1    31    32    1
     2    32    33   ar
     3    33    34   ar
     4    34    35   ar
     5    35    36   ar
     6    36    37   ar
     7    37    22    1
     8    22    23   ar
     9    23    24   ar
    10    24    25   ar
    11    25    26   ar
    12    26    27   ar
    13    27    21    1
    14    21     1    1
    15     1     2   ar
    16     2     3   ar
    17     3     4   ar
    18     4     7    1
    19     7     8   ar
    20     8     9   ar
    21     9    10   ar
    22    10    13    1
    23    13    14    1
    24    13    15    1
    25    13    16    1
    26    10    11   ar
    27    11    12   ar
    28    12    17    1
    29    17    18    1
    30    17    19    1
    31    17    20    1
    32     4     5   ar
    33     5     6   ar
    34    27    28   ar
    35    28    29   ar
    36    29    30   ar
    37    37    32   ar
    38    30    22   ar
    39    29    24    1
    40     6     1   ar
    41    12     7   ar
@<TRIPOS>MOLECULE
*****
 37 41 0 0 0
SMALL
GASTEIGER

@<TRIPOS>ATOM
      1 C         138.8236  141.4735  161.0513 C.ar    1  UNL1        0.1034
      2 C         137.8111  142.0185  162.0144 C.ar    1  UNL1        0.0201
      3 C         138.0070  141.8378  163.4906 C.ar    1  UNL1        0.0222
      4 C         139.2153  141.1121  164.0035 C.ar    1  UNL1        0.1028
      5 N         140.2278  140.5670  163.0403 N.ar    1  UNL1       -0.1483
      6 N         140.0320  140.7477  161.5642 N.ar    1  UNL1       -0.1504
      7 C         139.4112  140.9314  165.4797 C.ar    1  UNL1        0.0233
      8 C         138.8089  139.7476  166.1768 C.ar    1  UNL1        0.0014
      9 C         139.0048  139.5669  167.6530 C.ar    1  UNL1        0.0039
     10 C         139.8029  140.5700  168.4320 C.ar    1  UNL1        0.0714
     11 C         140.4051  141.7538  167.7348 C.ar    1  UNL1        0.0078
     12 C         140.2093  141.9345  166.2587 C.ar    1  UNL1        0.0729
     13 C         139.9987  140.3893  169.9081 C.3     1  UNL1        0.4186
     14 F         140.1946  140.2085  171.3842 F       1  UNL1       -0.1659
     15 F         138.9317  141.4093  170.1745 F       1  UNL1       -0.1659
     16 F         141.0657  139.3693  169.6416 F       1  UNL1       -0.1659
     17 C         140.8115  143.1183  165.5616 C.3     1  UNL1        0.4186
     18 F         141.4137  144.3021  164.8645 F       1  UNL1       -0.1659
     19 F         142.0480  142.3195  165.2735 F       1  UNL1       -0.1659
     20 F         139.5749  143.9170  165.8497 F       1  UNL1       -0.1659
     21 C         138.6277  141.6542  159.5751 C.3     1  UNL1        0.1538
     22 C         141.1624  137.1221  155.8613 C.ar    1  UNL1        0.1645
     23 N         141.9033  138.4226  155.7630 N.ar    1  UNL1       -0.2249
     24 C         141.2290  139.4099  156.6689 C.ar    1  UNL1        0.1035
     25 C         141.5196  140.8484  156.9794 C.ar    1  UNL1        0.0394
     26 C         140.6525  141.5964  157.9482 C.ar    1  UNL1        0.0779
     27 N         139.4949  140.9061  158.6064 N.ar    1  UNL1       -0.3178
     28 C         139.2043  139.4677  158.2958 C.ar    1  UNL1        0.0971
     29 C         140.0714  138.7196  157.3271 C.ar    1  UNL1        0.1178
     30 N         140.0302  137.3057  156.8280 N.ar    1  UNL1       -0.2235
     31 F         142.7970  134.9898  157.1961 F       1  UNL1       -0.2041
     32 C         142.3126  134.7936  155.7900 C.ar    1  UNL1        0.1430
     33 C         142.6454  133.5312  155.0514 C.ar    1  UNL1        0.0297
     34 C         142.1610  133.3349  153.6454 C.ar    1  UNL1        0.0023
     35 C         141.3437  134.4011  152.9781 C.ar    1  UNL1        0.0002
     36 C         141.0109  135.6635  153.7167 C.ar    1  UNL1        0.0053
     37 C         141.4953  135.8597  155.1227 C.ar    1  UNL1        0.0632
@<TRIPOS>BOND
     1    31    32    1
     2    32    33   ar
     3    33    34   ar
     4    34    35   ar
     5    35    36   ar
     6    36    37   ar
     7    37    22    1
     8    22    23   ar
     9    23    24   ar
    10    24    25   ar
    11    25    26   ar
    12    26    27   ar
    13    27    21    1
    14    21     1    1
    15     1     2   ar
    16     2     3   ar
    17     3     4   ar
    18     4     7    1
    19     7     8   ar
    20     8     9   ar
    21     9    10   ar
    22    10    13    1
    23    13    14    1
    24    13    15    1
    25    13    16    1
    26    10    11   ar
    27    11    12   ar
    28    12    17    1
    29    17    18    1
    30    17    19    1
    31    17    20    1
    32     4     5   ar
    33     5     6   ar
    34    27    28   ar
    35    28    29   ar
    36    29    30   ar
    37    37    32   ar
    38    30    22   ar
    39    29    24    1
    40     6     1   ar
    41    12     7   ar
