@<TRIPOS>MOLECULE
*****
 26 28 0 0 0
SMALL
GASTEIGER

@<TRIPOS>ATOM
      1 N         140.1519  142.6914  166.5914 N.ar    1  UNL1       -0.2465
      2 C         140.0707  143.7927  165.5764 C.ar    1  UNL1        0.1025
      3 C         139.1038  143.3703  164.5103 C.ar    1  UNL1        0.1051
      4 C         138.5872  142.0078  164.8665 C.ar    1  UNL1        0.1578
      5 N         139.2350  141.5882  166.1527 N.ar    1  UNL1       -0.1539
      6 C         142.3918  142.1332  167.7837 C.3     1  UNL1        0.1187
      7 C         143.2406  142.1347  169.0203 C.3     1  UNL1        0.0492
      8 C         142.6985  142.6958  170.3015 C.3     1  UNL1        0.1434
      9 O         141.3075  143.2554  170.3459 O.3     1  UNL1       -0.3516
     10 C         140.4587  143.2539  169.1093 C.3     1  UNL1        0.1674
     11 C         141.0008  142.6928  167.8281 C.3     1  UNL1        0.1488
     12 N         143.4760  141.0110  165.2214 N.1     1  UNL1       -0.1958
     13 C         142.9339  141.5721  166.5025 C.1     1  UNL1        0.0742
     14 C         138.7206  144.1700  163.3004 C.2     1  UNL1        0.2470
     15 N         139.3689  145.4979  163.0429 N.am    1  UNL1       -0.3252
     16 O         137.6891  143.6417  162.3481 O.2     1  UNL1       -0.2702
     17 H         140.0459  145.8446  163.6679 H       1  UNL1        0.1453
     18 H         139.1174  146.0227  162.2488 H       1  UNL1        0.1453
     19 N         137.5968  141.2058  164.0754 N.pl3   1  UNL1       -0.2964
     20 H         136.6327  141.3794  164.1730 H       1  UNL1        0.1537
     21 C         138.0755  140.1392  163.1356 C.ar    1  UNL1        0.0494
     22 C         137.7974  140.2544  161.6661 C.ar    1  UNL1        0.0146
     23 C         138.2760  139.1879  160.7263 C.ar    1  UNL1        0.0013
     24 C         139.0327  138.0060  161.2560 C.ar    1  UNL1        0.0001
     25 C         139.3107  137.8907  162.7254 C.ar    1  UNL1        0.0013
     26 C         138.8321  138.9573  163.6653 C.ar    1  UNL1        0.0146
@<TRIPOS>BOND
     1    12    13    3
     2     6    13    1
     3     6     7    1
     4     7     8    1
     5     8     9    1
     6     9    10    1
     7    10    11    1
     8    11     1    1
     9     1     2   ar
    10     2     3   ar
    11     3    14    1
    12    14    15   am
    13    14    16    2
    14     3     4   ar
    15     4    19    1
    16    19    21    1
    17    21    22   ar
    18    22    23   ar
    19    23    24   ar
    20    24    25   ar
    21    25    26   ar
    22     4     5   ar
    23    11     6    1
    24     5     1   ar
    25    26    21   ar
    26    15    17    1
    27    15    18    1
    28    19    20    1
@<TRIPOS>MOLECULE
*****
 26 28 0 0 0
SMALL
GASTEIGER

@<TRIPOS>ATOM
      1 N         142.2287  141.2985  166.5369 N.ar    1  UNL1       -0.2465
      2 C         143.2236  140.4033  165.8598 C.ar    1  UNL1        0.1025
      3 C         143.8756  141.1847  164.7579 C.ar    1  UNL1        0.1051
      4 C         143.2837  142.5630  164.7540 C.ar    1  UNL1        0.1578
      5 N         142.2658  142.6333  165.8535 N.ar    1  UNL1       -0.1539
      6 C         141.7498  141.3008  169.0905 C.3     1  UNL1        0.1187
      7 C         140.8719  140.9269  170.2479 C.3     1  UNL1        0.0492
      8 C         139.5949  140.1771  170.0090 C.3     1  UNL1        0.1434
      9 O         139.1959  139.8010  168.6129 O.3     1  UNL1       -0.3516
     10 C         140.0738  140.1748  167.4555 C.3     1  UNL1        0.1674
     11 C         141.3508  140.9247  167.6944 C.3     1  UNL1        0.1488
     12 N         144.3038  142.8005  169.5682 N.1     1  UNL1       -0.1958
     13 C         143.0268  142.0506  169.3294 C.1     1  UNL1        0.0742
     14 C         144.9339  140.6770  163.8238 C.2     1  UNL1        0.2470
     15 N         144.9096  139.2479  163.3686 N.am    1  UNL1       -0.3252
     16 O         146.0163  141.5984  163.3448 O.2     1  UNL1       -0.2702
     17 H         144.1992  138.6432  163.6829 H       1  UNL1        0.1453
     18 H         145.6042  138.9148  162.7555 H       1  UNL1        0.1453
     19 N         143.6459  143.6755  163.8154 N.pl3   1  UNL1       -0.2964
     20 H         144.5587  144.0444  163.8183 H       1  UNL1        0.1537
     21 C         142.6175  144.2260  162.8724 C.ar    1  UNL1        0.0494
     22 C         141.5771  145.1836  163.3730 C.ar    1  UNL1        0.0146
     23 C         140.5487  145.7340  162.4300 C.ar    1  UNL1        0.0013
     24 C         140.5606  145.3269  160.9864 C.ar    1  UNL1        0.0001
     25 C         141.6010  144.3693  160.4858 C.ar    1  UNL1        0.0013
     26 C         142.6294  143.8189  161.4288 C.ar    1  UNL1        0.0146
@<TRIPOS>BOND
     1    12    13    3
     2     6    13    1
     3     6     7    1
     4     7     8    1
     5     8     9    1
     6     9    10    1
     7    10    11    1
     8    11     1    1
     9     1     2   ar
    10     2     3   ar
    11     3    14    1
    12    14    15   am
    13    14    16    2
    14     3     4   ar
    15     4    19    1
    16    19    21    1
    17    21    22   ar
    18    22    23   ar
    19    23    24   ar
    20    24    25   ar
    21    25    26   ar
    22     4     5   ar
    23    11     6    1
    24     5     1   ar
    25    26    21   ar
    26    15    17    1
    27    15    18    1
    28    19    20    1
@<TRIPOS>MOLECULE
*****
 26 28 0 0 0
SMALL
GASTEIGER

@<TRIPOS>ATOM
      1 N         139.3559  142.0307  164.2037 N.ar    1  UNL1       -0.2465
      2 C         139.1962  140.6984  163.5335 C.ar    1  UNL1        0.1025
      3 C         139.0587  139.6552  164.6026 C.ar    1  UNL1        0.1051
      4 C         139.1335  140.3429  165.9336 C.ar    1  UNL1        0.1578
      5 N         139.3172  141.8111  165.6870 N.ar    1  UNL1       -0.1539
      6 C         140.8541  144.0456  163.5358 C.3     1  UNL1        0.1187
      7 C         141.0229  145.3658  162.8442 C.3     1  UNL1        0.0492
      8 C         139.8624  145.9915  162.1288 C.3     1  UNL1        0.1434
      9 O         138.5332  145.2970  162.1050 O.3     1  UNL1       -0.3516
     10 C         138.3644  143.9768  162.7967 C.3     1  UNL1        0.1674
     11 C         139.5248  143.3511  163.5120 C.3     1  UNL1        0.1488
     12 N         143.1750  142.7941  164.9666 N.1     1  UNL1       -0.1958
     13 C         142.0146  143.4198  164.2512 C.1     1  UNL1        0.0742
     14 C         138.8782  138.1829  164.3798 C.2     1  UNL1        0.2470
     15 N         139.0019  137.6127  162.9979 N.am    1  UNL1       -0.3252
     16 O         138.5739  137.2807  165.5389 O.2     1  UNL1       -0.2702
     17 H         139.2015  138.2048  162.2372 H       1  UNL1        0.1453
     18 H         138.8834  136.6463  162.8518 H       1  UNL1        0.1453
     19 N         139.0408  139.6790  167.2755 N.pl3   1  UNL1       -0.2964
     20 H         138.3247  139.0274  167.4539 H       1  UNL1        0.1537
     21 C         140.0392  140.0080  168.3455 C.ar    1  UNL1        0.0494
     22 C         139.5689  140.4281  169.7066 C.ar    1  UNL1        0.0146
     23 C         140.5673  140.7570  170.7765 C.ar    1  UNL1        0.0013
     24 C         142.0360  140.6659  170.4855 C.ar    1  UNL1        0.0001
     25 C         142.5062  140.2458  169.1245 C.ar    1  UNL1        0.0013
     26 C         141.5078  139.9169  168.0545 C.ar    1  UNL1        0.0146
@<TRIPOS>BOND
     1    12    13    3
     2     6    13    1
     3     6     7    1
     4     7     8    1
     5     8     9    1
     6     9    10    1
     7    10    11    1
     8    11     1    1
     9     1     2   ar
    10     2     3   ar
    11     3    14    1
    12    14    15   am
    13    14    16    2
    14     3     4   ar
    15     4    19    1
    16    19    21    1
    17    21    22   ar
    18    22    23   ar
    19    23    24   ar
    20    24    25   ar
    21    25    26   ar
    22     4     5   ar
    23    11     6    1
    24     5     1   ar
    25    26    21   ar
    26    15    17    1
    27    15    18    1
    28    19    20    1
@<TRIPOS>MOLECULE
*****
 26 28 0 0 0
SMALL
GASTEIGER

@<TRIPOS>ATOM
      1 N         140.8078  140.7177  167.2309 N.ar    1  UNL1       -0.2465
      2 C         141.1500  139.3972  166.6070 C.ar    1  UNL1        0.1025
      3 C         140.0978  139.0805  165.5859 C.ar    1  UNL1        0.1051
      4 C         139.1054  140.2053  165.5787 C.ar    1  UNL1        0.1578
      5 N         139.5442  141.2171  166.5954 N.ar    1  UNL1       -0.1539
      6 C         141.0860  141.4282  169.7144 C.3     1  UNL1        0.1187
      7 C         141.8698  142.1267  170.7857 C.3     1  UNL1        0.0492
      8 C         143.1592  142.8131  170.4449 C.3     1  UNL1        0.1434
      9 O         143.6648  142.8011  169.0328 O.3     1  UNL1       -0.3516
     10 C         142.8810  142.1026  167.9615 C.3     1  UNL1        0.1674
     11 C         141.5916  141.4162  168.3023 C.3     1  UNL1        0.1488
     12 N         138.5071  140.0554  170.3961 N.1     1  UNL1       -0.1958
     13 C         139.7965  140.7418  170.0553 C.1     1  UNL1        0.0742
     14 C         140.0471  137.8543  164.7234 C.2     1  UNL1        0.2470
     15 N         141.2831  137.0295  164.5188 N.am    1  UNL1       -0.3252
     16 O         138.7602  137.4529  164.0654 O.2     1  UNL1       -0.2702
     17 H         142.1277  137.2930  164.9506 H       1  UNL1        0.1453
     18 H         141.2498  136.2247  163.9527 H       1  UNL1        0.1453
     19 N         137.8879  140.3013  164.7077 N.pl3   1  UNL1       -0.2964
     20 H         137.0377  139.9035  165.0045 H       1  UNL1        0.1537
     21 C         137.9659  141.0035  163.3845 C.ar    1  UNL1        0.0494
     22 C         138.0227  140.2067  162.1148 C.ar    1  UNL1        0.0146
     23 C         138.1007  140.9089  160.7917 C.ar    1  UNL1        0.0013
     24 C         138.1220  142.4078  160.7382 C.ar    1  UNL1        0.0001
     25 C         138.0652  143.2045  162.0078 C.ar    1  UNL1        0.0013
     26 C         137.9872  142.5023  163.3310 C.ar    1  UNL1        0.0146
@<TRIPOS>BOND
     1    12    13    3
     2     6    13    1
     3     6     7    1
     4     7     8    1
     5     8     9    1
     6     9    10    1
     7    10    11    1
     8    11     1    1
     9     1     2   ar
    10     2     3   ar
    11     3    14    1
    12    14    15   am
    13    14    16    2
    14     3     4   ar
    15     4    19    1
    16    19    21    1
    17    21    22   ar
    18    22    23   ar
    19    23    24   ar
    20    24    25   ar
    21    25    26   ar
    22     4     5   ar
    23    11     6    1
    24     5     1   ar
    25    26    21   ar
    26    15    17    1
    27    15    18    1
    28    19    20    1
@<TRIPOS>MOLECULE
*****
 26 28 0 0 0
SMALL
GASTEIGER

@<TRIPOS>ATOM
      1 N         139.4374  140.2762  165.7352 N.ar    1  UNL1       -0.2465
      2 C         139.1766  139.2208  164.7017 C.ar    1  UNL1        0.1025
      3 C         138.4831  139.8701  163.5409 C.ar    1  UNL1        0.1051
      4 C         138.3152  141.3268  163.8570 C.ar    1  UNL1        0.1578
      5 N         138.9051  141.5778  165.2131 N.ar    1  UNL1       -0.1539
      6 C         141.6081  139.9884  167.1334 C.3     1  UNL1        0.1187
      7 C         142.2828  139.7790  168.4567 C.3     1  UNL1        0.0492
      8 C         141.4614  139.6481  169.7049 C.3     1  UNL1        0.1434
      9 O         139.9653  139.7265  169.6299 O.3     1  UNL1       -0.3516
     10 C         139.2907  139.9359  168.3067 C.3     1  UNL1        0.1674
     11 C         140.1121  140.0668  167.0585 C.3     1  UNL1        0.1488
     12 N         143.2510  140.2503  164.6369 N.1     1  UNL1       -0.1958
     13 C         142.4296  140.1193  165.8852 C.1     1  UNL1        0.0742
     14 C         138.0359  139.1832  162.2846 C.2     1  UNL1        0.2470
     15 N         138.2479  137.7074  162.1205 N.am    1  UNL1       -0.3252
     16 O         137.3767  139.9722  161.1924 O.2     1  UNL1       -0.2702
     17 H         138.6805  137.1895  162.8373 H       1  UNL1        0.1453
     18 H         137.9543  137.2566  161.2959 H       1  UNL1        0.1453
     19 N         137.6708  142.3524  162.9722 N.pl3   1  UNL1       -0.2964
     20 H         136.6938  142.3534  162.8505 H       1  UNL1        0.1537
     21 C         138.5148  143.3765  162.2730 C.ar    1  UNL1        0.0494
     22 C         138.7154  144.7298  162.8881 C.ar    1  UNL1        0.0146
     23 C         139.5594  145.7537  162.1889 C.ar    1  UNL1        0.0013
     24 C         140.2029  145.4245  160.8746 C.ar    1  UNL1        0.0001
     25 C         140.0023  144.0713  160.2595 C.ar    1  UNL1        0.0013
     26 C         139.1583  143.0472  160.9587 C.ar    1  UNL1        0.0146
@<TRIPOS>BOND
     1    12    13    3
     2     6    13    1
     3     6     7    1
     4     7     8    1
     5     8     9    1
     6     9    10    1
     7    10    11    1
     8    11     1    1
     9     1     2   ar
    10     2     3   ar
    11     3    14    1
    12    14    15   am
    13    14    16    2
    14     3     4   ar
    15     4    19    1
    16    19    21    1
    17    21    22   ar
    18    22    23   ar
    19    23    24   ar
    20    24    25   ar
    21    25    26   ar
    22     4     5   ar
    23    11     6    1
    24     5     1   ar
    25    26    21   ar
    26    15    17    1
    27    15    18    1
    28    19    20    1
@<TRIPOS>MOLECULE
*****
 26 28 0 0 0
SMALL
GASTEIGER

@<TRIPOS>ATOM
      1 N         139.5657  142.0644  164.4117 N.ar    1  UNL1       -0.2465
      2 C         138.8696  140.7451  164.2546 C.ar    1  UNL1        0.1025
      3 C         138.8864  140.0509  165.5842 C.ar    1  UNL1        0.1051
      4 C         139.5929  140.9413  166.5631 C.ar    1  UNL1        0.1578
      5 N         140.0127  142.1857  165.8384 N.ar    1  UNL1       -0.1539
      6 C         139.3957  144.5152  163.5660 C.3     1  UNL1        0.1187
      7 C         139.6076  145.5343  162.4860 C.3     1  UNL1        0.0492
      8 C         140.2014  145.1220  161.1718 C.3     1  UNL1        0.1434
      9 O         140.5833  143.6905  160.9375 O.3     1  UNL1       -0.3516
     10 C         140.3714  142.6713  162.0174 C.3     1  UNL1        0.1674
     11 C         139.7776  143.0837  163.3317 C.3     1  UNL1        0.1488
     12 N         138.2080  145.3398  166.1946 N.1     1  UNL1       -0.1958
     13 C         138.8018  144.9275  164.8803 C.1     1  UNL1        0.0742
     14 C         138.2997  138.7030  165.8826 C.2     1  UNL1        0.2470
     15 N         138.7001  137.5126  165.0626 N.am    1  UNL1       -0.3252
     16 O         137.3126  138.5456  167.0010 O.2     1  UNL1       -0.2702
     17 H         139.3479  137.6158  164.3286 H       1  UNL1        0.1453
     18 H         138.3150  136.6279  165.2585 H       1  UNL1        0.1453
     19 N         139.8368  140.6401  168.0122 N.pl3   1  UNL1       -0.2964
     20 H         139.3130  139.9398  168.4643 H       1  UNL1        0.1537
     21 C         140.8787  141.4059  168.7723 C.ar    1  UNL1        0.0494
     22 C         140.5341  142.7267  169.3942 C.ar    1  UNL1        0.0146
     23 C         141.5760  143.4924  170.1543 C.ar    1  UNL1        0.0013
     24 C         142.9627  142.9374  170.2926 C.ar    1  UNL1        0.0001
     25 C         143.3074  141.6167  169.6708 C.ar    1  UNL1        0.0013
     26 C         142.2654  140.8509  168.9106 C.ar    1  UNL1        0.0146
@<TRIPOS>BOND
     1    12    13    3
     2     6    13    1
     3     6     7    1
     4     7     8    1
     5     8     9    1
     6     9    10    1
     7    10    11    1
     8    11     1    1
     9     1     2   ar
    10     2     3   ar
    11     3    14    1
    12    14    15   am
    13    14    16    2
    14     3     4   ar
    15     4    19    1
    16    19    21    1
    17    21    22   ar
    18    22    23   ar
    19    23    24   ar
    20    24    25   ar
    21    25    26   ar
    22     4     5   ar
    23    11     6    1
    24     5     1   ar
    25    26    21   ar
    26    15    17    1
    27    15    18    1
    28    19    20    1
@<TRIPOS>MOLECULE
*****
 26 28 0 0 0
SMALL
GASTEIGER

@<TRIPOS>ATOM
      1 N         139.7096  141.1414  166.5782 N.ar    1  UNL1       -0.2465
      2 C         139.7972  142.5782  166.1563 C.ar    1  UNL1        0.1025
      3 C         138.9174  142.7632  164.9556 C.ar    1  UNL1        0.1051
      4 C         138.2860  141.4407  164.6354 C.ar    1  UNL1        0.1578
      5 N         138.7756  140.4384  165.6382 N.ar    1  UNL1       -0.1539
      6 C         141.8778  140.1480  167.6088 C.3     1  UNL1        0.1187
      7 C         142.5977  139.5238  168.7673 C.3     1  UNL1        0.0492
      8 C         141.8694  139.2687  170.0535 C.3     1  UNL1        0.1434
      9 O         140.4212  139.6378  170.1814 O.3     1  UNL1       -0.3516
     10 C         139.7013  140.2621  169.0229 C.3     1  UNL1        0.1674
     11 C         140.4296  140.5172  167.7367 C.3     1  UNL1        0.1488
     12 N         143.3344  140.6582  165.0363 N.1     1  UNL1       -0.1958
     13 C         142.6061  140.4031  166.3226 C.1     1  UNL1        0.0742
     14 C         138.7061  144.0455  164.2066 C.2     1  UNL1        0.2470
     15 N         139.6668  145.1839  164.3824 N.am    1  UNL1       -0.3252
     16 O         137.5339  144.1894  163.2817 O.2     1  UNL1       -0.2702
     17 H         140.4362  145.0895  164.9894 H       1  UNL1        0.1453
     18 H         139.5281  146.0255  163.8908 H       1  UNL1        0.1453
     19 N         137.3324  141.1684  163.5100 N.pl3   1  UNL1       -0.2964
     20 H         136.3758  141.3769  163.6140 H       1  UNL1        0.1537
     21 C         137.8362  140.5785  162.2262 C.ar    1  UNL1        0.0494
     22 C         138.0922  139.1038  162.1280 C.ar    1  UNL1        0.0146
     23 C         138.5960  138.5140  160.8442 C.ar    1  UNL1        0.0013
     24 C         138.8439  139.3988  159.6586 C.ar    1  UNL1        0.0001
     25 C         138.5880  140.8735  159.7569 C.ar    1  UNL1        0.0013
     26 C         138.0841  141.4634  161.0407 C.ar    1  UNL1        0.0146
@<TRIPOS>BOND
     1    12    13    3
     2     6    13    1
     3     6     7    1
     4     7     8    1
     5     8     9    1
     6     9    10    1
     7    10    11    1
     8    11     1    1
     9     1     2   ar
    10     2     3   ar
    11     3    14    1
    12    14    15   am
    13    14    16    2
    14     3     4   ar
    15     4    19    1
    16    19    21    1
    17    21    22   ar
    18    22    23   ar
    19    23    24   ar
    20    24    25   ar
    21    25    26   ar
    22     4     5   ar
    23    11     6    1
    24     5     1   ar
    25    26    21   ar
    26    15    17    1
    27    15    18    1
    28    19    20    1
@<TRIPOS>MOLECULE
*****
 26 28 0 0 0
SMALL
GASTEIGER

@<TRIPOS>ATOM
      1 N         139.8088  139.2450  164.2192 N.ar    1  UNL1       -0.2465
      2 C         138.8636  138.3957  165.0162 C.ar    1  UNL1        0.1025
      3 C         138.7107  139.0194  166.3718 C.ar    1  UNL1        0.1051
      4 C         139.5613  140.2543  166.4125 C.ar    1  UNL1        0.1578
      5 N         140.2399  140.3937  165.0821 N.ar    1  UNL1       -0.1539
      6 C         139.5579  139.6882  161.6715 C.3     1  UNL1        0.1187
      7 C         139.9952  139.4336  160.2594 C.3     1  UNL1        0.0492
      8 C         141.1205  138.4812  159.9829 C.3     1  UNL1        0.1434
      9 O         141.8086  137.7834  161.1185 O.3     1  UNL1       -0.3516
     10 C         141.3714  138.0380  162.5305 C.3     1  UNL1        0.1674
     11 C         140.2460  138.9904  162.8070 C.3     1  UNL1        0.1488
     12 N         137.3071  141.5930  162.2245 N.1     1  UNL1       -0.1958
     13 C         138.4325  140.6406  161.9480 C.1     1  UNL1        0.0742
     14 C         137.8570  138.4995  167.4903 C.2     1  UNL1        0.2470
     15 N         137.0117  137.2778  167.2831 N.am    1  UNL1       -0.3252
     16 O         137.8485  139.2014  168.8159 O.2     1  UNL1       -0.2702
     17 H         137.0173  136.8171  166.4131 H       1  UNL1        0.1453
     18 H         136.4514  136.9366  168.0172 H       1  UNL1        0.1453
     19 N         139.7075  141.1861  167.5789 N.pl3   1  UNL1       -0.2964
     20 H         138.9808  141.8110  167.8038 H       1  UNL1        0.1537
     21 C         140.9610  141.1657  168.4025 C.ar    1  UNL1        0.0494
     22 C         141.2983  139.9575  169.2252 C.ar    1  UNL1        0.0146
     23 C         142.5517  139.9372  170.0487 C.ar    1  UNL1        0.0013
     24 C         143.4679  141.1249  170.0497 C.ar    1  UNL1        0.0001
     25 C         143.1306  142.3329  169.2272 C.ar    1  UNL1        0.0013
     26 C         141.8771  142.3534  168.4035 C.ar    1  UNL1        0.0146
@<TRIPOS>BOND
     1    12    13    3
     2     6    13    1
     3     6     7    1
     4     7     8    1
     5     8     9    1
     6     9    10    1
     7    10    11    1
     8    11     1    1
     9     1     2   ar
    10     2     3   ar
    11     3    14    1
    12    14    15   am
    13    14    16    2
    14     3     4   ar
    15     4    19    1
    16    19    21    1
    17    21    22   ar
    18    22    23   ar
    19    23    24   ar
    20    24    25   ar
    21    25    26   ar
    22     4     5   ar
    23    11     6    1
    24     5     1   ar
    25    26    21   ar
    26    15    17    1
    27    15    18    1
    28    19    20    1
@<TRIPOS>MOLECULE
*****
 26 28 0 0 0
SMALL
GASTEIGER

@<TRIPOS>ATOM
      1 N         140.2080  142.3259  166.7941 N.ar    1  UNL1       -0.2465
      2 C         139.7604  141.0029  166.2471 C.ar    1  UNL1        0.1025
      3 C         138.9093  141.2644  165.0399 C.ar    1  UNL1        0.1051
      4 C         138.8311  142.7491  164.8408 C.ar    1  UNL1        0.1578
      5 N         139.6337  143.4051  165.9249 N.ar    1  UNL1       -0.1539
      6 C         142.5494  142.2564  167.9181 C.3     1  UNL1        0.1187
      7 C         143.4187  142.4638  169.1227 C.3     1  UNL1        0.0492
      8 C         142.8161  142.9482  170.4081 C.3     1  UNL1        0.1434
      9 O         141.3441  143.2251  170.4888 O.3     1  UNL1       -0.3516
     10 C         140.4748  143.0177  169.2842 C.3     1  UNL1        0.1674
     11 C         141.0774  142.5333  167.9988 C.3     1  UNL1        0.1488
     12 N         143.7547  141.2876  165.3473 N.1     1  UNL1       -0.1958
     13 C         143.1521  141.7720  166.6327 C.1     1  UNL1        0.0742
     14 C         138.2520  140.2240  164.1824 C.2     1  UNL1        0.2470
     15 N         138.5043  138.7685  164.4429 N.am    1  UNL1       -0.3252
     16 O         137.3423  140.6390  163.0642 O.2     1  UNL1       -0.2702
     17 H         139.1014  138.4961  165.1768 H       1  UNL1        0.1453
     18 H         138.0729  138.0856  163.8801 H       1  UNL1        0.1453
     19 N         138.0817  143.4540  163.7492 N.pl3   1  UNL1       -0.2964
     20 H         137.1013  143.5309  163.7954 H       1  UNL1        0.1537
     21 C         138.8262  144.0417  162.5871 C.ar    1  UNL1        0.0494
     22 C         139.1096  143.2028  161.3763 C.ar    1  UNL1        0.0146
     23 C         139.8540  143.7905  160.2143 C.ar    1  UNL1        0.0013
     24 C         140.3150  145.2171  160.2630 C.ar    1  UNL1        0.0001
     25 C         140.0316  146.0559  161.4737 C.ar    1  UNL1        0.0013
     26 C         139.2871  145.4682  162.6358 C.ar    1  UNL1        0.0146
@<TRIPOS>BOND
     1    12    13    3
     2     6    13    1
     3     6     7    1
     4     7     8    1
     5     8     9    1
     6     9    10    1
     7    10    11    1
     8    11     1    1
     9     1     2   ar
    10     2     3   ar
    11     3    14    1
    12    14    15   am
    13    14    16    2
    14     3     4   ar
    15     4    19    1
    16    19    21    1
    17    21    22   ar
    18    22    23   ar
    19    23    24   ar
    20    24    25   ar
    21    25    26   ar
    22     4     5   ar
    23    11     6    1
    24     5     1   ar
    25    26    21   ar
    26    15    17    1
    27    15    18    1
    28    19    20    1
