@<TRIPOS>MOLECULE
*****
 33 36 0 0 0
SMALL
GASTEIGER

@<TRIPOS>ATOM
      1 C         138.5892  138.9863  162.4230 C.ar    1  UNL1        0.0505
      2 C         139.1372  137.9183  163.3225 C.ar    1  UNL1        0.0148
      3 C         139.2011  138.1454  164.8038 C.ar    1  UNL1        0.0060
      4 C         138.7170  139.4404  165.3856 C.ar    1  UNL1        0.0553
      5 C         138.1689  140.5084  164.4862 C.ar    1  UNL1        0.0060
      6 C         138.1050  140.2813  163.0049 C.ar    1  UNL1        0.0148
      7 C         138.7809  139.6674  166.8670 C.ar    1  UNL1        0.2512
      8 N         137.9895  138.9309  167.9068 N.ar    1  UNL1       -0.1058
      9 N         138.3669  139.4790  169.2511 N.ar    1  UNL1       -0.0923
     10 C         139.3915  140.5545  169.0421 C.ar    1  UNL1        0.3086
     11 O         139.6474  140.6709  167.5686 O.2     1  UNL1       -0.4048
     12 N         140.0455  141.3703  170.1177 N.pl3   1  UNL1       -0.2871
     13 H         140.1475  140.9990  171.0237 H       1  UNL1        0.1512
     14 C         140.5440  142.7517  169.8127 C.3     1  UNL1        0.0925
     15 C         141.9647  143.1214  170.1210 C.3     1  UNL1        0.0386
     16 C         143.0886  142.2636  169.6200 C.3     1  UNL1        0.0738
     17 N         142.9117  141.4488  168.3732 N.3     1  UNL1       -0.2726
     18 C         142.7924  142.1304  167.0423 C.3     1  UNL1        0.0721
     19 C         142.6156  141.3156  165.7955 C.3     1  UNL1        0.0174
     20 C         142.5581  139.8190  165.8794 C.3     1  UNL1        0.0029
     21 C         142.6773  139.1374  167.2102 C.3     1  UNL1        0.0174
     22 C         142.8542  139.9523  168.4571 C.3     1  UNL1        0.0721
     23 O         140.8065  139.9697  160.6577 O.2     1  UNL1       -0.2697
     24 C         139.6339  139.2509  160.0590 C.2     1  UNL1        0.2517
     25 N         138.5252  138.7592  160.9416 N.am    1  UNL1       -0.2803
     26 H         137.7556  138.2875  160.5487 H       1  UNL1        0.1552
     27 C         139.5699  139.0239  158.5776 C.ar    1  UNL1        0.0811
     28 C         140.3826  137.9300  157.9507 C.ar    1  UNL1        0.0068
     29 C         140.3186  137.7030  156.4694 C.ar    1  UNL1        0.0003
     30 C         139.4420  138.5699  155.6150 C.ar    1  UNL1        0.0023
     31 C         138.6294  139.6638  156.2418 C.ar    1  UNL1        0.0298
     32 C         138.6934  139.8908  157.7231 C.ar    1  UNL1        0.1445
     33 F         137.8807  140.9847  158.3501 F       1  UNL1       -0.2040
@<TRIPOS>BOND
     1    23    24    2
     2    24    25   am
     3    25     1    1
     4     1     2   ar
     5     2     3   ar
     6     3     4   ar
     7     4     7    1
     8     7     8   ar
     9     8     9   ar
    10     9    10   ar
    11    10    12    1
    12    12    14    1
    13    14    15    1
    14    15    16    1
    15    16    17    1
    16    17    18    1
    17    18    19    1
    18    19    20    1
    19    20    21    1
    20    21    22    1
    21    10    11   ar
    22     4     5   ar
    23     5     6   ar
    24    24    27    1
    25    27    28   ar
    26    28    29   ar
    27    29    30   ar
    28    30    31   ar
    29    31    32   ar
    30    32    33    1
    31     6     1   ar
    32    32    27   ar
    33    11     7   ar
    34    22    17    1
    35    25    26    1
    36    12    13    1
@<TRIPOS>MOLECULE
*****
 33 36 0 0 0
SMALL
GASTEIGER

@<TRIPOS>ATOM
      1 C         140.2875  142.1189  162.2298 C.ar    1  UNL1        0.0505
      2 C         140.0465  142.9757  163.4371 C.ar    1  UNL1        0.0148
      3 C         139.6217  142.3464  164.7307 C.ar    1  UNL1        0.0060
      4 C         139.4378  140.8603  164.8170 C.ar    1  UNL1        0.0553
      5 C         139.6788  140.0034  163.6097 C.ar    1  UNL1        0.0060
      6 C         140.1036  140.6327  162.3161 C.ar    1  UNL1        0.0148
      7 C         139.0130  140.2310  166.1107 C.ar    1  UNL1        0.2512
      8 N         138.0282  139.1099  166.2643 N.ar    1  UNL1       -0.1058
      9 N         137.9049  138.7983  167.7263 N.ar    1  UNL1       -0.0923
     10 C         138.8135  139.7268  168.4764 C.ar    1  UNL1        0.3086
     11 O         139.4982  140.6122  167.4778 O.2     1  UNL1       -0.4048
     12 N         139.0038  139.7635  169.9638 N.pl3   1  UNL1       -0.2871
     13 H         138.2470  139.5662  170.5619 H       1  UNL1        0.1512
     14 C         140.3470  140.1006  170.5400 C.3     1  UNL1        0.0925
     15 C         141.5929  139.5554  169.9070 C.3     1  UNL1        0.0386
     16 C         142.6081  140.4915  169.3215 C.3     1  UNL1        0.0738
     17 N         142.7919  140.5640  167.8347 N.3     1  UNL1       -0.2726
     18 C         142.9204  141.8969  167.1588 C.3     1  UNL1        0.0721
     19 C         143.1042  141.9693  165.6719 C.3     1  UNL1        0.0174
     20 C         143.1594  140.7088  164.8608 C.3     1  UNL1        0.0029
     21 C         143.0308  139.3759  165.5365 C.3     1  UNL1        0.0174
     22 C         142.8470  139.3035  167.0235 C.3     1  UNL1        0.0721
     23 O         138.2209  143.0354  160.2576 O.2     1  UNL1       -0.2697
     24 C         139.6791  143.2064  159.9500 C.2     1  UNL1        0.2517
     25 N         140.7123  142.7482  160.9361 N.am    1  UNL1       -0.2803
     26 H         141.6693  142.8604  160.7342 H       1  UNL1        0.1552
     27 C         140.1039  143.8357  158.6563 C.ar    1  UNL1        0.0811
     28 C         140.3627  142.9770  157.4540 C.ar    1  UNL1        0.0068
     29 C         140.7875  143.6063  156.1604 C.ar    1  UNL1        0.0003
     30 C         140.9536  145.0943  156.0691 C.ar    1  UNL1        0.0023
     31 C         140.6948  145.9530  157.2715 C.ar    1  UNL1        0.0298
     32 C         140.2699  145.3237  158.5651 C.ar    1  UNL1        0.1445
     33 F         140.0111  146.1824  159.7675 F       1  UNL1       -0.2040
@<TRIPOS>BOND
     1    23    24    2
     2    24    25   am
     3    25     1    1
     4     1     2   ar
     5     2     3   ar
     6     3     4   ar
     7     4     7    1
     8     7     8   ar
     9     8     9   ar
    10     9    10   ar
    11    10    12    1
    12    12    14    1
    13    14    15    1
    14    15    16    1
    15    16    17    1
    16    17    18    1
    17    18    19    1
    18    19    20    1
    19    20    21    1
    20    21    22    1
    21    10    11   ar
    22     4     5   ar
    23     5     6   ar
    24    24    27    1
    25    27    28   ar
    26    28    29   ar
    27    29    30   ar
    28    30    31   ar
    29    31    32   ar
    30    32    33    1
    31     6     1   ar
    32    32    27   ar
    33    11     7   ar
    34    22    17    1
    35    25    26    1
    36    12    13    1
@<TRIPOS>MOLECULE
*****
 33 36 0 0 0
SMALL
GASTEIGER

@<TRIPOS>ATOM
      1 C         141.2715  143.1533  164.3947 C.ar    1  UNL1        0.0505
      2 C         141.0128  142.2674  163.2122 C.ar    1  UNL1        0.0148
      3 C         140.9224  142.8596  161.8370 C.ar    1  UNL1        0.0060
      4 C         141.0907  144.3376  161.6443 C.ar    1  UNL1        0.0553
      5 C         141.3494  145.2235  162.8268 C.ar    1  UNL1        0.0060
      6 C         141.4398  144.6313  164.2020 C.ar    1  UNL1        0.0148
      7 C         141.0002  144.9297  160.2691 C.ar    1  UNL1        0.2512
      8 N         139.7572  145.4583  159.6167 N.ar    1  UNL1       -0.1058
      9 N         140.1256  145.9525  158.2492 N.ar    1  UNL1       -0.0923
     10 C         141.5964  145.7293  158.0564 C.ar    1  UNL1        0.3086
     11 O         142.1369  145.0972  159.3047 O.2     1  UNL1       -0.4048
     12 N         142.3877  146.0772  156.8305 N.pl3   1  UNL1       -0.2871
     13 H         143.0101  146.8398  156.8463 H       1  UNL1        0.1512
     14 C         142.2307  145.2631  155.5805 C.3     1  UNL1        0.0925
     15 C         140.9707  145.3644  154.7728 C.3     1  UNL1        0.0386
     16 C         140.7922  146.4919  153.7998 C.3     1  UNL1        0.0738
     17 N         140.1691  147.7798  154.2504 N.3     1  UNL1       -0.2726
     18 C         139.2157  147.7870  155.4084 C.3     1  UNL1        0.0721
     19 C         138.5926  149.0748  155.8590 C.3     1  UNL1        0.0174
     20 C         138.9229  150.3556  155.1516 C.3     1  UNL1        0.0029
     21 C         139.8763  150.3485  153.9936 C.3     1  UNL1        0.0174
     22 C         140.4994  149.0606  153.5430 C.3     1  UNL1        0.0721
     23 O         143.8802  142.0513  165.3848 O.2     1  UNL1       -0.2697
     24 C         142.6663  142.0102  166.2650 C.2     1  UNL1        0.2517
     25 N         141.3620  142.5612  165.7699 N.am    1  UNL1       -0.2803
     26 H         140.5652  142.5342  166.3476 H       1  UNL1        0.1552
     27 C         142.7567  141.4181  167.6402 C.ar    1  UNL1        0.0811
     28 C         143.2114  142.2638  168.7925 C.ar    1  UNL1        0.0068
     29 C         143.3019  141.6717  170.1677 C.ar    1  UNL1        0.0003
     30 C         142.9376  140.2338  170.3906 C.ar    1  UNL1        0.0023
     31 C         142.4829  139.3880  169.2383 C.ar    1  UNL1        0.0298
     32 C         142.3924  139.9801  167.8631 C.ar    1  UNL1        0.1445
     33 F         141.9377  139.1343  166.7107 F       1  UNL1       -0.2040
@<TRIPOS>BOND
     1    23    24    2
     2    24    25   am
     3    25     1    1
     4     1     2   ar
     5     2     3   ar
     6     3     4   ar
     7     4     7    1
     8     7     8   ar
     9     8     9   ar
    10     9    10   ar
    11    10    12    1
    12    12    14    1
    13    14    15    1
    14    15    16    1
    15    16    17    1
    16    17    18    1
    17    18    19    1
    18    19    20    1
    19    20    21    1
    20    21    22    1
    21    10    11   ar
    22     4     5   ar
    23     5     6   ar
    24    24    27    1
    25    27    28   ar
    26    28    29   ar
    27    29    30   ar
    28    30    31   ar
    29    31    32   ar
    30    32    33    1
    31     6     1   ar
    32    32    27   ar
    33    11     7   ar
    34    22    17    1
    35    25    26    1
    36    12    13    1
@<TRIPOS>MOLECULE
*****
 33 36 0 0 0
SMALL
GASTEIGER

@<TRIPOS>ATOM
      1 C         139.0122  141.0872  164.5868 C.ar    1  UNL1        0.0505
      2 C         137.9552  142.0243  164.0823 C.ar    1  UNL1        0.0148
      3 C         137.7792  142.2322  162.6073 C.ar    1  UNL1        0.0060
      4 C         138.6602  141.5029  161.6367 C.ar    1  UNL1        0.0553
      5 C         139.7172  140.5658  162.1411 C.ar    1  UNL1        0.0060
      6 C         139.8932  140.3580  163.6162 C.ar    1  UNL1        0.0148
      7 C         138.4841  141.7109  160.1616 C.ar    1  UNL1        0.2512
      8 N         138.0862  140.6629  159.1648 N.ar    1  UNL1       -0.1058
      9 N         138.0312  141.3075  157.8115 N.ar    1  UNL1       -0.0923
     10 C         138.3952  142.7539  157.9719 C.ar    1  UNL1        0.3086
     11 O         138.6751  143.0031  159.4243 O.2     1  UNL1       -0.4048
     12 N         138.4667  143.7722  156.8728 N.pl3   1  UNL1       -0.2871
     13 H         137.6981  143.9023  156.2716 H       1  UNL1        0.1512
     14 C         139.7094  144.5922  156.6898 C.3     1  UNL1        0.0925
     15 C         140.8771  144.4004  157.6116 C.3     1  UNL1        0.0386
     16 C         141.1805  145.4278  158.6615 C.3     1  UNL1        0.0738
     17 N         141.0580  145.0747  160.1141 N.3     1  UNL1       -0.2726
     18 C         140.0950  145.8211  160.9889 C.3     1  UNL1        0.0721
     19 C         139.9725  145.4679  162.4415 C.3     1  UNL1        0.0174
     20 C         140.8131  144.3682  163.0194 C.3     1  UNL1        0.0029
     21 C         141.7762  143.6218  162.1447 C.3     1  UNL1        0.0174
     22 C         141.8986  143.9750  160.6920 C.3     1  UNL1        0.0721
     23 O         141.1403  142.5938  166.0706 O.2     1  UNL1       -0.2697
     24 C         140.2523  141.6326  166.8037 C.2     1  UNL1        0.2517
     25 N         139.1883  140.8793  166.0619 N.am    1  UNL1       -0.2803
     26 H         138.6055  140.2484  166.5431 H       1  UNL1        0.1552
     27 C         140.4283  141.4247  168.2788 C.ar    1  UNL1        0.0811
     28 C         140.7041  140.0512  168.8150 C.ar    1  UNL1        0.0068
     29 C         140.8801  139.8434  170.2900 C.ar    1  UNL1        0.0003
     30 C         140.7804  141.0090  171.2289 C.ar    1  UNL1        0.0023
     31 C         140.5047  142.3825  170.6927 C.ar    1  UNL1        0.0298
     32 C         140.3286  142.5903  169.2177 C.ar    1  UNL1        0.1445
     33 F         140.0529  143.9638  168.6814 F       1  UNL1       -0.2040
@<TRIPOS>BOND
     1    23    24    2
     2    24    25   am
     3    25     1    1
     4     1     2   ar
     5     2     3   ar
     6     3     4   ar
     7     4     7    1
     8     7     8   ar
     9     8     9   ar
    10     9    10   ar
    11    10    12    1
    12    12    14    1
    13    14    15    1
    14    15    16    1
    15    16    17    1
    16    17    18    1
    17    18    19    1
    18    19    20    1
    19    20    21    1
    20    21    22    1
    21    10    11   ar
    22     4     5   ar
    23     5     6   ar
    24    24    27    1
    25    27    28   ar
    26    28    29   ar
    27    29    30   ar
    28    30    31   ar
    29    31    32   ar
    30    32    33    1
    31     6     1   ar
    32    32    27   ar
    33    11     7   ar
    34    22    17    1
    35    25    26    1
    36    12    13    1
@<TRIPOS>MOLECULE
*****
 33 36 0 0 0
SMALL
GASTEIGER

@<TRIPOS>ATOM
      1 C         140.3756  142.5916  163.6519 C.ar    1  UNL1        0.0505
      2 C         139.3091  143.5014  163.1182 C.ar    1  UNL1        0.0148
      3 C         138.6723  143.2129  161.7911 C.ar    1  UNL1        0.0060
      4 C         139.1021  142.0147  160.9976 C.ar    1  UNL1        0.0553
      5 C         140.1687  141.1050  161.5313 C.ar    1  UNL1        0.0060
      6 C         140.8054  141.3934  162.8584 C.ar    1  UNL1        0.0148
      7 C         138.4654  141.7263  159.6704 C.ar    1  UNL1        0.2512
      8 N         138.2813  140.3699  159.0570 N.ar    1  UNL1       -0.1058
      9 N         137.6030  140.5489  157.7311 N.ar    1  UNL1       -0.0923
     10 C         137.3679  142.0160  157.5251 C.ar    1  UNL1        0.3086
     11 O         137.9009  142.7437  158.7236 O.2     1  UNL1       -0.4048
     12 N         136.7146  142.6450  156.3303 N.pl3   1  UNL1       -0.2871
     13 H         135.8470  142.3081  156.0094 H       1  UNL1        0.1512
     14 C         137.3831  143.7873  155.6245 C.3     1  UNL1        0.0925
     15 C         138.8746  143.8007  155.4650 C.3     1  UNL1        0.0386
     16 C         139.6899  144.8725  156.1257 C.3     1  UNL1        0.0738
     17 N         140.4251  144.5778  157.3994 N.3     1  UNL1       -0.2726
     18 C         140.3677  145.5494  158.5407 C.3     1  UNL1        0.0721
     19 C         141.1030  145.2546  159.8144 C.3     1  UNL1        0.0174
     20 C         141.8958  143.9881  159.9469 C.3     1  UNL1        0.0029
     21 C         141.9533  143.0165  158.8056 C.3     1  UNL1        0.0174
     22 C         141.2179  143.3113  157.5318 C.3     1  UNL1        0.0721
     23 O         139.4225  141.1672  166.1141 O.2     1  UNL1       -0.2697
     24 C         140.5358  142.1678  166.2102 C.2     1  UNL1        0.2517
     25 N         141.0124  142.8801  164.9791 N.am    1  UNL1       -0.2803
     26 H         141.7431  143.5368  165.0421 H       1  UNL1        0.1552
     27 C         141.1726  142.4563  167.5374 C.ar    1  UNL1        0.0811
     28 C         140.3844  143.1406  168.6145 C.ar    1  UNL1        0.0068
     29 C         141.0212  143.4290  169.9416 C.ar    1  UNL1        0.0003
     30 C         142.4462  143.0330  170.1916 C.ar    1  UNL1        0.0023
     31 C         143.2345  142.3487  169.1144 C.ar    1  UNL1        0.0298
     32 C         142.5977  142.0603  167.7873 C.ar    1  UNL1        0.1445
     33 F         143.3859  141.3759  166.7101 F       1  UNL1       -0.2040
@<TRIPOS>BOND
     1    23    24    2
     2    24    25   am
     3    25     1    1
     4     1     2   ar
     5     2     3   ar
     6     3     4   ar
     7     4     7    1
     8     7     8   ar
     9     8     9   ar
    10     9    10   ar
    11    10    12    1
    12    12    14    1
    13    14    15    1
    14    15    16    1
    15    16    17    1
    16    17    18    1
    17    18    19    1
    18    19    20    1
    19    20    21    1
    20    21    22    1
    21    10    11   ar
    22     4     5   ar
    23     5     6   ar
    24    24    27    1
    25    27    28   ar
    26    28    29   ar
    27    29    30   ar
    28    30    31   ar
    29    31    32   ar
    30    32    33    1
    31     6     1   ar
    32    32    27   ar
    33    11     7   ar
    34    22    17    1
    35    25    26    1
    36    12    13    1
@<TRIPOS>MOLECULE
*****
 33 36 0 0 0
SMALL
GASTEIGER

@<TRIPOS>ATOM
      1 C         141.3414  139.3301  163.9829 C.ar    1  UNL1        0.0505
      2 C         140.4505  138.2962  163.3605 C.ar    1  UNL1        0.0148
      3 C         140.5954  137.9588  161.9062 C.ar    1  UNL1        0.0060
      4 C         141.6310  138.6554  161.0742 C.ar    1  UNL1        0.0553
      5 C         142.5219  139.6893  161.6966 C.ar    1  UNL1        0.0060
      6 C         142.3770  140.0266  163.1509 C.ar    1  UNL1        0.0148
      7 C         141.7758  138.3179  159.6198 C.ar    1  UNL1        0.2512
      8 N         140.6914  138.3896  158.5859 N.ar    1  UNL1       -0.1058
      9 N         141.2758  137.9656  157.2711 N.ar    1  UNL1       -0.0923
     10 C         142.7214  137.6319  157.4924 C.ar    1  UNL1        0.3086
     11 O         143.0304  137.8497  158.9440 O.2     1  UNL1       -0.4048
     12 N         143.6883  137.1628  156.4459 N.pl3   1  UNL1       -0.2871
     13 H         144.6572  137.2551  156.5941 H       1  UNL1        0.1512
     14 C         143.1789  136.5531  155.1736 C.3     1  UNL1        0.0925
     15 C         143.0710  135.0624  155.0469 C.3     1  UNL1        0.0386
     16 C         142.4596  134.2578  156.1554 C.3     1  UNL1        0.0738
     17 N         143.1853  133.0658  156.7053 N.3     1  UNL1       -0.2726
     18 C         144.4500  133.2537  157.4897 C.3     1  UNL1        0.0721
     19 C         145.1757  132.0618  158.0395 C.3     1  UNL1        0.0174
     20 C         144.6367  130.6817  157.8051 C.3     1  UNL1        0.0029
     21 C         143.3720  130.4937  157.0208 C.3     1  UNL1        0.0174
     22 C         142.6463  131.6858  156.4709 C.3     1  UNL1        0.0721
     23 O         139.2195  141.2555  164.8721 O.2     1  UNL1       -0.2697
     24 C         140.1356  140.6302  165.8819 C.2     1  UNL1        0.2517
     25 N         141.1965  139.6675  165.4373 N.am    1  UNL1       -0.2803
     26 H         141.7978  139.2571  166.1001 H       1  UNL1        0.1552
     27 C         139.9908  140.9676  167.3363 C.ar    1  UNL1        0.0811
     28 C         139.3242  139.9994  168.2681 C.ar    1  UNL1        0.0068
     29 C         139.1794  140.3369  169.7224 C.ar    1  UNL1        0.0003
     30 C         139.7012  141.6425  170.2450 C.ar    1  UNL1        0.0023
     31 C         140.3679  142.6106  169.3132 C.ar    1  UNL1        0.0298
     32 C         140.5126  142.2732  167.8589 C.ar    1  UNL1        0.1445
     33 F         141.1793  143.2414  166.9270 F       1  UNL1       -0.2040
@<TRIPOS>BOND
     1    23    24    2
     2    24    25   am
     3    25     1    1
     4     1     2   ar
     5     2     3   ar
     6     3     4   ar
     7     4     7    1
     8     7     8   ar
     9     8     9   ar
    10     9    10   ar
    11    10    12    1
    12    12    14    1
    13    14    15    1
    14    15    16    1
    15    16    17    1
    16    17    18    1
    17    18    19    1
    18    19    20    1
    19    20    21    1
    20    21    22    1
    21    10    11   ar
    22     4     5   ar
    23     5     6   ar
    24    24    27    1
    25    27    28   ar
    26    28    29   ar
    27    29    30   ar
    28    30    31   ar
    29    31    32   ar
    30    32    33    1
    31     6     1   ar
    32    32    27   ar
    33    11     7   ar
    34    22    17    1
    35    25    26    1
    36    12    13    1
@<TRIPOS>MOLECULE
*****
 33 36 0 0 0
SMALL
GASTEIGER

@<TRIPOS>ATOM
      1 C         143.1401  142.6905  157.3758 C.ar    1  UNL1        0.0505
      2 C         143.1962  143.4757  158.6527 C.ar    1  UNL1        0.0148
      3 C         142.0504  143.4188  159.6190 C.ar    1  UNL1        0.0060
      4 C         140.8485  142.5767  159.3085 C.ar    1  UNL1        0.0553
      5 C         140.7924  141.7916  158.0317 C.ar    1  UNL1        0.0060
      6 C         141.9382  141.8485  157.0654 C.ar    1  UNL1        0.0148
      7 C         139.7026  142.5199  160.2749 C.ar    1  UNL1        0.2512
      8 N         138.7647  143.6451  160.5976 N.ar    1  UNL1       -0.1058
      9 N         137.7760  143.1485  161.6104 N.ar    1  UNL1       -0.0923
     10 C         138.1029  141.7163  161.9137 C.ar    1  UNL1        0.3086
     11 O         139.2936  141.3278  161.0884 O.2     1  UNL1       -0.4048
     12 N         137.3680  140.8285  162.8738 N.pl3   1  UNL1       -0.2871
     13 H         136.3864  140.8739  162.9336 H       1  UNL1        0.1512
     14 C         138.1288  139.8715  163.7429 C.3     1  UNL1        0.0925
     15 C         138.2638  140.1382  165.2129 C.3     1  UNL1        0.0386
     16 C         139.3947  140.9823  165.7213 C.3     1  UNL1        0.0738
     17 N         139.7697  142.2448  165.0036 N.3     1  UNL1       -0.2726
     18 C         141.0004  142.2833  164.1468 C.3     1  UNL1        0.0721
     19 C         141.3754  143.5459  163.4291 C.3     1  UNL1        0.0174
     20 C         140.5198  144.7701  163.5681 C.3     1  UNL1        0.0029
     21 C         139.2892  144.7316  164.4248 C.3     1  UNL1        0.0174
     22 C         138.9141  143.4690  165.1426 C.3     1  UNL1        0.0721
     23 O         145.1680  140.4804  157.3218 O.2     1  UNL1       -0.2697
     24 C         145.2998  141.6423  156.3824 C.2     1  UNL1        0.2517
     25 N         144.2859  142.7474  156.4094 N.am    1  UNL1       -0.2803
     26 H         144.3724  143.5100  155.7929 H       1  UNL1        0.1552
     27 C         146.4457  141.6992  155.4160 C.ar    1  UNL1        0.0811
     28 C         146.2347  141.3222  153.9796 C.ar    1  UNL1        0.0068
     29 C         147.3805  141.3790  153.0133 C.ar    1  UNL1        0.0003
     30 C         148.7373  141.8130  153.4833 C.ar    1  UNL1        0.0023
     31 C         148.9482  142.1900  154.9197 C.ar    1  UNL1        0.0298
     32 C         147.8024  142.1331  155.8861 C.ar    1  UNL1        0.1445
     33 F         148.0133  142.5102  157.3225 F       1  UNL1       -0.2040
@<TRIPOS>BOND
     1    23    24    2
     2    24    25   am
     3    25     1    1
     4     1     2   ar
     5     2     3   ar
     6     3     4   ar
     7     4     7    1
     8     7     8   ar
     9     8     9   ar
    10     9    10   ar
    11    10    12    1
    12    12    14    1
    13    14    15    1
    14    15    16    1
    15    16    17    1
    16    17    18    1
    17    18    19    1
    18    19    20    1
    19    20    21    1
    20    21    22    1
    21    10    11   ar
    22     4     5   ar
    23     5     6   ar
    24    24    27    1
    25    27    28   ar
    26    28    29   ar
    27    29    30   ar
    28    30    31   ar
    29    31    32   ar
    30    32    33    1
    31     6     1   ar
    32    32    27   ar
    33    11     7   ar
    34    22    17    1
    35    25    26    1
    36    12    13    1
@<TRIPOS>MOLECULE
*****
 33 36 0 0 0
SMALL
GASTEIGER

@<TRIPOS>ATOM
      1 C         142.1397  138.1237  157.8900 C.ar    1  UNL1        0.0505
      2 C         141.9448  139.4700  157.2581 C.ar    1  UNL1        0.0148
      3 C         142.2476  140.7153  158.0376 C.ar    1  UNL1        0.0060
      4 C         142.7454  140.6142  159.4490 C.ar    1  UNL1        0.0553
      5 C         142.9403  139.2679  160.0809 C.ar    1  UNL1        0.0060
      6 C         142.6375  138.0226  159.3014 C.ar    1  UNL1        0.0148
      7 C         143.0482  141.8596  160.2284 C.ar    1  UNL1        0.2512
      8 N         144.4038  142.2987  160.6969 N.ar    1  UNL1       -0.1058
      9 N         144.2421  143.5949  161.4342 N.ar    1  UNL1       -0.0923
     10 C         142.7865  143.9569  161.4214 C.ar    1  UNL1        0.3086
     11 O         142.0486  142.8844  160.6762 O.2     1  UNL1       -0.4048
     12 N         142.1759  145.1771  162.0445 N.pl3   1  UNL1       -0.2871
     13 H         142.0244  145.9839  161.5010 H       1  UNL1        0.1512
     14 C         141.7961  145.1682  163.4956 C.3     1  UNL1        0.0925
     15 C         141.1111  143.9706  164.0842 C.3     1  UNL1        0.0386
     16 C         141.8365  143.0986  165.0656 C.3     1  UNL1        0.0738
     17 N         142.9718  142.2336  164.6042 N.3     1  UNL1       -0.2726
     18 C         142.6928  140.8911  163.9960 C.3     1  UNL1        0.0721
     19 C         143.8280  140.0262  163.5346 C.3     1  UNL1        0.0174
     20 C         145.2424  140.5037  163.6813 C.3     1  UNL1        0.0029
     21 C         145.5215  141.8461  164.2894 C.3     1  UNL1        0.0174
     22 C         144.3862  142.7111  164.7509 C.3     1  UNL1        0.0721
     23 O         144.2221  136.9417  156.0827 O.2     1  UNL1       -0.2697
     24 C         142.8781  136.2874  156.2069 C.2     1  UNL1        0.2517
     25 N         141.8369  136.8784  157.1106 N.am    1  UNL1       -0.2803
     26 H         140.9547  136.4489  157.1921 H       1  UNL1        0.1552
     27 C         142.5752  135.0420  155.4275 C.ar    1  UNL1        0.0811
     28 C         142.2678  135.1306  153.9620 C.ar    1  UNL1        0.0068
     29 C         141.9650  133.8853  153.1827 C.ar    1  UNL1        0.0003
     30 C         141.9696  132.5514  153.8687 C.ar    1  UNL1        0.0023
     31 C         142.2770  132.4628  155.3342 C.ar    1  UNL1        0.0298
     32 C         142.5798  133.7081  156.1136 C.ar    1  UNL1        0.1445
     33 F         142.8872  133.6196  157.5791 F       1  UNL1       -0.2040
@<TRIPOS>BOND
     1    23    24    2
     2    24    25   am
     3    25     1    1
     4     1     2   ar
     5     2     3   ar
     6     3     4   ar
     7     4     7    1
     8     7     8   ar
     9     8     9   ar
    10     9    10   ar
    11    10    12    1
    12    12    14    1
    13    14    15    1
    14    15    16    1
    15    16    17    1
    16    17    18    1
    17    18    19    1
    18    19    20    1
    19    20    21    1
    20    21    22    1
    21    10    11   ar
    22     4     5   ar
    23     5     6   ar
    24    24    27    1
    25    27    28   ar
    26    28    29   ar
    27    29    30   ar
    28    30    31   ar
    29    31    32   ar
    30    32    33    1
    31     6     1   ar
    32    32    27   ar
    33    11     7   ar
    34    22    17    1
    35    25    26    1
    36    12    13    1
@<TRIPOS>MOLECULE
*****
 33 36 0 0 0
SMALL
GASTEIGER

@<TRIPOS>ATOM
      1 C         142.5705  137.9959  158.1570 C.ar    1  UNL1        0.0505
      2 C         142.9401  137.6518  159.5694 C.ar    1  UNL1        0.0148
      3 C         143.4027  138.7274  160.5069 C.ar    1  UNL1        0.0060
      4 C         143.4957  140.1472  160.0320 C.ar    1  UNL1        0.0553
      5 C         143.1261  140.4914  158.6196 C.ar    1  UNL1        0.0060
      6 C         142.6635  139.4158  157.6821 C.ar    1  UNL1        0.0148
      7 C         143.9584  141.2228  160.9696 C.ar    1  UNL1        0.2512
      8 N         145.0012  141.0731  162.0374 N.ar    1  UNL1       -0.1058
      9 N         145.1468  142.3947  162.7317 N.ar    1  UNL1       -0.0923
     10 C         144.1939  143.3612  162.0931 C.ar    1  UNL1        0.3086
     11 O         143.4595  142.6370  161.0041 O.2     1  UNL1       -0.4048
     12 N         144.0081  144.7996  162.4762 N.pl3   1  UNL1       -0.2871
     13 H         144.4933  145.5050  161.9903 H       1  UNL1        0.1512
     14 C         143.0832  145.1629  163.5998 C.3     1  UNL1        0.0925
     15 C         142.3505  144.0874  164.3458 C.3     1  UNL1        0.0386
     16 C         140.9185  143.7876  164.0150 C.3     1  UNL1        0.0738
     17 N         140.5859  142.9360  162.8258 N.3     1  UNL1       -0.2726
     18 C         140.2041  143.5794  161.5257 C.3     1  UNL1        0.0721
     19 C         139.8715  142.7278  160.3366 C.3     1  UNL1        0.0174
     20 C         139.9208  141.2327  160.4475 C.3     1  UNL1        0.0029
     21 C         140.3026  140.5893  161.7475 C.3     1  UNL1        0.0174
     22 C         140.6352  141.4409  162.9367 C.3     1  UNL1        0.0721
     23 O         144.3929  137.0121  155.9865 O.2     1  UNL1       -0.2697
     24 C         143.0190  136.4284  156.1342 C.2     1  UNL1        0.2517
     25 N         142.1079  136.9203  157.2194 N.am    1  UNL1       -0.2803
     26 H         141.2061  136.5372  157.3163 H       1  UNL1        0.1552
     27 C         142.5564  135.3528  155.1965 C.ar    1  UNL1        0.0811
     28 C         142.2444  135.6864  153.7678 C.ar    1  UNL1        0.0068
     29 C         141.7818  134.6108  152.8303 C.ar    1  UNL1        0.0003
     30 C         141.6311  133.2015  153.3215 C.ar    1  UNL1        0.0023
     31 C         141.9431  132.8679  154.7502 C.ar    1  UNL1        0.0298
     32 C         142.4057  133.9435  155.6878 C.ar    1  UNL1        0.1445
     33 F         142.7178  133.6099  157.1166 F       1  UNL1       -0.2040
@<TRIPOS>BOND
     1    23    24    2
     2    24    25   am
     3    25     1    1
     4     1     2   ar
     5     2     3   ar
     6     3     4   ar
     7     4     7    1
     8     7     8   ar
     9     8     9   ar
    10     9    10   ar
    11    10    12    1
    12    12    14    1
    13    14    15    1
    14    15    16    1
    15    16    17    1
    16    17    18    1
    17    18    19    1
    18    19    20    1
    19    20    21    1
    20    21    22    1
    21    10    11   ar
    22     4     5   ar
    23     5     6   ar
    24    24    27    1
    25    27    28   ar
    26    28    29   ar
    27    29    30   ar
    28    30    31   ar
    29    31    32   ar
    30    32    33    1
    31     6     1   ar
    32    32    27   ar
    33    11     7   ar
    34    22    17    1
    35    25    26    1
    36    12    13    1
