@<TRIPOS>MOLECULE
*****
 27 30 0 0 0
SMALL
GASTEIGER

@<TRIPOS>ATOM
      1 C         141.1070  138.3920  160.2628 C.ar    1  UNL1        0.1547
      2 C         140.8150  138.7401  161.6923 C.ar    1  UNL1        0.0384
      3 C         141.9233  138.7503  162.7032 C.ar    1  UNL1        0.0034
      4 C         143.3235  138.4124  162.2844 C.ar    1  UNL1        0.0017
      5 C         143.6154  138.0643  160.8548 C.ar    1  UNL1        0.0206
      6 C         142.5071  138.0541  159.8440 C.ar    1  UNL1        0.0994
      7 N         142.7991  137.7060  158.4145 N.ar    1  UNL1       -0.2839
      8 C         142.9529  138.6794  157.2837 C.ar    1  UNL1        0.1826
      9 N         143.2374  137.8983  156.0351 N.ar    1  UNL1       -0.2280
     10 C         143.2593  136.4420  156.3942 C.ar    1  UNL1        0.0786
     11 C         143.5083  135.3045  155.4488 C.3     1  UNL1        0.0538
     12 C         142.9884  136.3232  157.8647 C.ar    1  UNL1        0.0963
     13 C         139.2572  139.6475  158.9393 C.3     1  UNL1        0.2525
     14 O         139.9987  138.3817  159.2521 O.3     1  UNL1       -0.4700
     15 C         141.6314  139.0984  164.1327 C.2     1  UNL1        0.0079
     16 C         142.7546  139.4434  165.0650 C.2     1  UNL1        0.0937
     17 C         142.4627  139.7915  166.4946 C.2     1  UNL1        0.3691
     18 N         141.6746  141.0256  166.8201 N.2     1  UNL1       -0.0400
     19 C         141.3827  141.3737  168.2497 C.2     1  UNL1        0.1818
     20 C         140.5946  142.6077  168.5752 C.3     1  UNL1        0.1000
     21 C         140.3028  142.9558  170.0047 C.2     1  UNL1       -0.0174
     22 C         140.7990  142.0699  171.1087 C.2     1  UNL1       -0.0038
     23 C         141.5871  140.8358  170.7832 C.2     1  UNL1        0.0101
     24 C         141.8790  140.4878  169.3537 C.2     1  UNL1        0.1209
     25 C         142.6671  139.2537  169.0281 C.2     1  UNL1        0.3788
     26 O         143.1634  138.3677  170.1321 O.2     1  UNL1       -0.2376
     27 N         142.9590  138.9056  167.5986 N.am    1  UNL1        0.0364
@<TRIPOS>BOND
     1    13    14    1
     2    14     1    1
     3     1     2   ar
     4     2     3   ar
     5     3    15    1
     6    15    16    2
     7    16    17    1
     8    17    18    1
     9    18    19    2
    10    19    20    1
    11    20    21    1
    12    21    22    2
    13    22    23    1
    14    23    24    2
    15    24    25    1
    16    25    26    2
    17    25    27    1
    18     3     4   ar
    19     4     5   ar
    20     5     6   ar
    21     6     7    1
    22     7     8   ar
    23     8     9   ar
    24     9    10   ar
    25    10    11    1
    26    10    12   ar
    27     6     1   ar
    28    12     7   ar
    29    27    17    2
    30    24    19    1
@<TRIPOS>MOLECULE
*****
 27 30 0 0 0
SMALL
GASTEIGER

@<TRIPOS>ATOM
      1 C         143.9310  139.4651  163.8684 C.ar    1  UNL1        0.1547
      2 C         143.9003  138.9408  162.4634 C.ar    1  UNL1        0.0384
      3 C         142.7251  138.1393  161.9874 C.ar    1  UNL1        0.0034
      4 C         141.5806  137.8620  162.9165 C.ar    1  UNL1        0.0017
      5 C         141.6113  138.3863  164.3216 C.ar    1  UNL1        0.0206
      6 C         142.7865  139.1878  164.7975 C.ar    1  UNL1        0.0994
      7 N         142.8171  139.7121  166.2026 N.ar    1  UNL1       -0.2839
      8 C         142.9792  138.8903  167.4469 C.ar    1  UNL1        0.1826
      9 N         142.9533  139.8205  168.6235 N.ar    1  UNL1       -0.2280
     10 C         142.7752  141.2172  168.1062 C.ar    1  UNL1        0.0786
     11 C         142.6953  142.4623  168.9388 C.3     1  UNL1        0.0538
     12 C         142.6910  141.1502  166.6100 C.ar    1  UNL1        0.0963
     13 C         145.4698  141.5473  163.6533 C.3     1  UNL1        0.2525
     14 O         145.1061  140.2666  164.3444 O.3     1  UNL1       -0.4700
     15 C         142.6945  137.6150  160.5824 C.2     1  UNL1        0.0079
     16 C         142.0198  138.4062  159.5013 C.2     1  UNL1        0.0937
     17 C         141.9891  137.8820  158.0961 C.2     1  UNL1        0.3691
     18 N         140.6975  137.8540  157.3341 N.2     1  UNL1       -0.0400
     19 C         140.6668  137.3298  155.9289 C.2     1  UNL1        0.1818
     20 C         139.3751  137.3019  155.1669 C.3     1  UNL1        0.1000
     21 C         139.3445  136.7777  153.7618 C.2     1  UNL1       -0.0174
     22 C         140.6056  136.2814  153.1188 C.2     1  UNL1       -0.0038
     23 C         141.8972  136.3093  153.8809 C.2     1  UNL1        0.0101
     24 C         141.9279  136.8335  155.2859 C.2     1  UNL1        0.1209
     25 C         143.2196  136.8615  156.0481 C.2     1  UNL1        0.3788
     26 O         144.4806  136.3652  155.4051 O.2     1  UNL1       -0.2376
     27 N         143.2502  137.3857  157.4531 N.am    1  UNL1        0.0364
@<TRIPOS>BOND
     1    13    14    1
     2    14     1    1
     3     1     2   ar
     4     2     3   ar
     5     3    15    1
     6    15    16    2
     7    16    17    1
     8    17    18    1
     9    18    19    2
    10    19    20    1
    11    20    21    1
    12    21    22    2
    13    22    23    1
    14    23    24    2
    15    24    25    1
    16    25    26    2
    17    25    27    1
    18     3     4   ar
    19     4     5   ar
    20     5     6   ar
    21     6     7    1
    22     7     8   ar
    23     8     9   ar
    24     9    10   ar
    25    10    11    1
    26    10    12   ar
    27     6     1   ar
    28    12     7   ar
    29    27    17    2
    30    24    19    1
@<TRIPOS>MOLECULE
*****
 27 30 0 0 0
SMALL
GASTEIGER

@<TRIPOS>ATOM
      1 C         140.2105  138.5808  158.8531 C.ar    1  UNL1        0.1547
      2 C         139.9594  138.7224  160.3251 C.ar    1  UNL1        0.0384
      3 C         141.0561  138.4266  161.3049 C.ar    1  UNL1        0.0034
      4 C         142.4038  137.9893  160.8126 C.ar    1  UNL1        0.0017
      5 C         142.6549  137.8477  159.3405 C.ar    1  UNL1        0.0206
      6 C         141.5582  138.1434  158.3608 C.ar    1  UNL1        0.0994
      7 N         141.8094  138.0018  156.8888 N.ar    1  UNL1       -0.2839
      8 C         142.2197  139.1013  155.9545 C.ar    1  UNL1        0.1826
      9 N         142.3582  138.5148  154.5808 N.ar    1  UNL1       -0.2280
     10 C         142.0334  137.0528  154.6661 C.ar    1  UNL1        0.0786
     11 C         142.0456  136.0790  153.5254 C.3     1  UNL1        0.0538
     12 C         141.6942  136.7358  156.0924 C.ar    1  UNL1        0.0963
     13 C         138.5600  140.2663  157.7645 C.3     1  UNL1        0.2525
     14 O         139.1139  138.8765  157.8733 O.3     1  UNL1       -0.4700
     15 C         140.8050  138.5682  162.7769 C.2     1  UNL1        0.0079
     16 C         139.5973  139.3130  163.2634 C.2     1  UNL1        0.0937
     17 C         139.3461  139.4546  164.7355 C.2     1  UNL1        0.3691
     18 N         140.1116  140.4686  165.5328 N.2     1  UNL1       -0.0400
     19 C         139.8605  140.6103  167.0049 C.2     1  UNL1        0.1818
     20 C         140.6260  141.6243  167.8021 C.3     1  UNL1        0.1000
     21 C         140.3748  141.7659  169.2741 C.2     1  UNL1       -0.0174
     22 C         139.3581  140.8935  169.9488 C.2     1  UNL1       -0.0038
     23 C         138.5926  139.8795  169.1516 C.2     1  UNL1        0.0101
     24 C         138.8438  139.7379  167.6796 C.2     1  UNL1        0.1209
     25 C         138.0782  138.7238  166.8822 C.2     1  UNL1        0.3788
     26 O         137.0615  137.8514  167.5569 O.2     1  UNL1       -0.2376
     27 N         138.3294  138.5822  165.4102 N.am    1  UNL1        0.0364
@<TRIPOS>BOND
     1    13    14    1
     2    14     1    1
     3     1     2   ar
     4     2     3   ar
     5     3    15    1
     6    15    16    2
     7    16    17    1
     8    17    18    1
     9    18    19    2
    10    19    20    1
    11    20    21    1
    12    21    22    2
    13    22    23    1
    14    23    24    2
    15    24    25    1
    16    25    26    2
    17    25    27    1
    18     3     4   ar
    19     4     5   ar
    20     5     6   ar
    21     6     7    1
    22     7     8   ar
    23     8     9   ar
    24     9    10   ar
    25    10    11    1
    26    10    12   ar
    27     6     1   ar
    28    12     7   ar
    29    27    17    2
    30    24    19    1
@<TRIPOS>MOLECULE
*****
 27 30 0 0 0
SMALL
GASTEIGER

@<TRIPOS>ATOM
      1 C         138.9176  139.9431  163.7415 C.ar    1  UNL1        0.1547
      2 C         139.1711  139.6805  162.2866 C.ar    1  UNL1        0.0384
      3 C         139.8672  138.4214  161.8619 C.ar    1  UNL1        0.0034
      4 C         140.3098  137.4251  162.8922 C.ar    1  UNL1        0.0017
      5 C         140.0564  137.6878  164.3471 C.ar    1  UNL1        0.0206
      6 C         139.3603  138.9468  164.7718 C.ar    1  UNL1        0.0994
      7 N         139.1069  139.2095  166.2266 N.ar    1  UNL1       -0.2839
      8 C         137.9501  138.6899  167.0280 C.ar    1  UNL1        0.1826
      9 N         138.0941  139.1972  168.4323 N.ar    1  UNL1       -0.2280
     10 C         139.3398  140.0302  168.4989 C.ar    1  UNL1        0.0786
     11 C         139.8669  140.7323  169.7150 C.3     1  UNL1        0.0538
     12 C         139.9657  140.0378  167.1358 C.ar    1  UNL1        0.0963
     13 C         137.3265  141.9253  163.2040 C.3     1  UNL1        0.2525
     14 O         138.2216  141.2021  164.1662 O.3     1  UNL1       -0.4700
     15 C         140.1206  138.1588  160.4070 C.2     1  UNL1        0.0079
     16 C         141.4607  138.4725  159.8106 C.2     1  UNL1        0.0937
     17 C         141.7141  138.2099  158.3557 C.2     1  UNL1        0.3691
     18 N         140.5875  137.7794  157.4639 N.2     1  UNL1       -0.0400
     19 C         140.8410  137.5167  156.0089 C.2     1  UNL1        0.1818
     20 C         139.7144  137.0862  155.1171 C.3     1  UNL1        0.1000
     21 C         139.9679  136.8235  153.6622 C.2     1  UNL1       -0.0174
     22 C         141.3481  136.9915  153.0992 C.2     1  UNL1       -0.0038
     23 C         142.4747  137.4220  153.9909 C.2     1  UNL1        0.0101
     24 C         142.2211  137.6846  155.4458 C.2     1  UNL1        0.1209
     25 C         143.3478  138.1152  156.3377 C.2     1  UNL1        0.3788
     26 O         144.7279  138.2831  155.7746 O.2     1  UNL1       -0.2376
     27 N         143.0943  138.3778  157.7926 N.am    1  UNL1        0.0364
@<TRIPOS>BOND
     1    13    14    1
     2    14     1    1
     3     1     2   ar
     4     2     3   ar
     5     3    15    1
     6    15    16    2
     7    16    17    1
     8    17    18    1
     9    18    19    2
    10    19    20    1
    11    20    21    1
    12    21    22    2
    13    22    23    1
    14    23    24    2
    15    24    25    1
    16    25    26    2
    17    25    27    1
    18     3     4   ar
    19     4     5   ar
    20     5     6   ar
    21     6     7    1
    22     7     8   ar
    23     8     9   ar
    24     9    10   ar
    25    10    11    1
    26    10    12   ar
    27     6     1   ar
    28    12     7   ar
    29    27    17    2
    30    24    19    1
@<TRIPOS>MOLECULE
*****
 27 30 0 0 0
SMALL
GASTEIGER

@<TRIPOS>ATOM
      1 C         139.0624  140.4123  164.3893 C.ar    1  UNL1        0.1547
      2 C         139.0967  139.7920  163.0240 C.ar    1  UNL1        0.0384
      3 C         140.1327  138.7581  162.6957 C.ar    1  UNL1        0.0034
      4 C         141.1344  138.3445  163.7327 C.ar    1  UNL1        0.0017
      5 C         141.1001  138.9648  165.0981 C.ar    1  UNL1        0.0206
      6 C         140.0641  139.9987  165.4263 C.ar    1  UNL1        0.0994
      7 N         140.0299  140.6189  166.7916 N.ar    1  UNL1       -0.2839
      8 C         139.5216  139.9674  168.0435 C.ar    1  UNL1        0.1826
      9 N         139.6755  140.9455  169.1704 N.ar    1  UNL1       -0.2280
     10 C         140.2789  142.2015  168.6149 C.ar    1  UNL1        0.0786
     11 C         140.6059  143.4415  169.3929 C.3     1  UNL1        0.0538
     12 C         140.4979  141.9996  167.1448 C.ar    1  UNL1        0.0963
     13 C         137.6797  142.5055  163.7138 C.3     1  UNL1        0.2525
     14 O         138.0264  141.4461  164.7175 O.3     1  UNL1       -0.4700
     15 C         140.1669  138.1378  161.3304 C.2     1  UNL1        0.0079
     16 C         140.8316  138.8590  160.1955 C.2     1  UNL1        0.0937
     17 C         140.8659  138.2388  158.8301 C.2     1  UNL1        0.3691
     18 N         142.1478  137.6723  158.2957 N.2     1  UNL1       -0.0400
     19 C         142.1821  137.0520  156.9303 C.2     1  UNL1        0.1818
     20 C         143.4640  136.4855  156.3958 C.3     1  UNL1        0.1000
     21 C         143.4983  135.8653  155.0305 C.2     1  UNL1       -0.0174
     22 C         142.2506  135.8116  154.1997 C.2     1  UNL1       -0.0038
     23 C         140.9686  136.3781  154.7341 C.2     1  UNL1        0.0101
     24 C         140.9344  136.9983  156.0994 C.2     1  UNL1        0.1209
     25 C         139.6524  137.5648  156.6339 C.2     1  UNL1        0.3788
     26 O         138.4047  137.5111  155.8030 O.2     1  UNL1       -0.2376
     27 N         139.6182  138.1851  157.9992 N.am    1  UNL1        0.0364
@<TRIPOS>BOND
     1    13    14    1
     2    14     1    1
     3     1     2   ar
     4     2     3   ar
     5     3    15    1
     6    15    16    2
     7    16    17    1
     8    17    18    1
     9    18    19    2
    10    19    20    1
    11    20    21    1
    12    21    22    2
    13    22    23    1
    14    23    24    2
    15    24    25    1
    16    25    26    2
    17    25    27    1
    18     3     4   ar
    19     4     5   ar
    20     5     6   ar
    21     6     7    1
    22     7     8   ar
    23     8     9   ar
    24     9    10   ar
    25    10    11    1
    26    10    12   ar
    27     6     1   ar
    28    12     7   ar
    29    27    17    2
    30    24    19    1
@<TRIPOS>MOLECULE
*****
 27 30 0 0 0
SMALL
GASTEIGER

@<TRIPOS>ATOM
      1 C         143.4409  139.9064  164.3691 C.ar    1  UNL1        0.1547
      2 C         143.3340  139.3672  162.9735 C.ar    1  UNL1        0.0384
      3 C         142.2917  138.3399  162.6441 C.ar    1  UNL1        0.0034
      4 C         141.3563  137.8520  163.7103 C.ar    1  UNL1        0.0017
      5 C         141.4632  138.3912  165.1060 C.ar    1  UNL1        0.0206
      6 C         142.5055  139.4184  165.4354 C.ar    1  UNL1        0.0994
      7 N         142.6123  139.9576  166.8310 N.ar    1  UNL1       -0.2839
      8 C         142.8802  139.1537  168.0687 C.ar    1  UNL1        0.1826
      9 N         142.9035  140.0947  169.2367 N.ar    1  UNL1       -0.2280
     10 C         142.6500  141.4802  168.7207 C.ar    1  UNL1        0.0786
     11 C         142.5875  142.7308  169.5465 C.3     1  UNL1        0.0538
     12 C         142.4701  141.3955  167.2340 C.ar    1  UNL1        0.0963
     13 C         145.5788  141.2314  163.7182 C.3     1  UNL1        0.2525
     14 O         144.4831  140.9336  164.6985 O.3     1  UNL1       -0.4700
     15 C         142.1848  137.8007  161.2484 C.2     1  UNL1        0.0079
     16 C         141.3698  138.5310  160.2227 C.2     1  UNL1        0.0937
     17 C         141.2629  137.9918  158.8270 C.2     1  UNL1        0.3691
     18 N         142.4374  137.3039  158.1967 N.2     1  UNL1       -0.0400
     19 C         142.3305  136.7647  156.8010 C.2     1  UNL1        0.1818
     20 C         143.5050  136.0767  156.1708 C.3     1  UNL1        0.1000
     21 C         143.3980  135.5376  154.7751 C.2     1  UNL1       -0.0174
     22 C         142.1166  135.6864  154.0098 C.2     1  UNL1       -0.0038
     23 C         140.9421  136.3743  154.6400 C.2     1  UNL1        0.0101
     24 C         141.0490  136.9135  156.0356 C.2     1  UNL1        0.1209
     25 C         139.8745  137.6015  156.6660 C.2     1  UNL1        0.3788
     26 O         138.5931  137.7502  155.9006 O.2     1  UNL1       -0.2376
     27 N         139.9814  138.1406  158.0616 N.am    1  UNL1        0.0364
@<TRIPOS>BOND
     1    13    14    1
     2    14     1    1
     3     1     2   ar
     4     2     3   ar
     5     3    15    1
     6    15    16    2
     7    16    17    1
     8    17    18    1
     9    18    19    2
    10    19    20    1
    11    20    21    1
    12    21    22    2
    13    22    23    1
    14    23    24    2
    15    24    25    1
    16    25    26    2
    17    25    27    1
    18     3     4   ar
    19     4     5   ar
    20     5     6   ar
    21     6     7    1
    22     7     8   ar
    23     8     9   ar
    24     9    10   ar
    25    10    11    1
    26    10    12   ar
    27     6     1   ar
    28    12     7   ar
    29    27    17    2
    30    24    19    1
@<TRIPOS>MOLECULE
*****
 27 30 0 0 0
SMALL
GASTEIGER

@<TRIPOS>ATOM
      1 C         140.8683  139.6665  165.3409 C.ar    1  UNL1        0.1547
      2 C         140.6064  139.1506  163.9570 C.ar    1  UNL1        0.0384
      3 C         141.7135  138.5099  163.1734 C.ar    1  UNL1        0.0034
      4 C         143.0824  138.3852  163.7737 C.ar    1  UNL1        0.0017
      5 C         143.3443  138.9011  165.1577 C.ar    1  UNL1        0.0206
      6 C         142.2372  139.5417  165.9413 C.ar    1  UNL1        0.0994
      7 N         142.4991  140.0576  167.3252 N.ar    1  UNL1       -0.2839
      8 C         142.6009  139.2281  168.5708 C.ar    1  UNL1        0.1826
      9 N         142.8699  140.1514  169.7220 N.ar    1  UNL1       -0.2280
     10 C         142.9344  141.5517  169.1878 C.ar    1  UNL1        0.0786
     11 C         143.1842  142.7920  169.9933 C.3     1  UNL1        0.0538
     12 C         142.7053  141.4937  167.7065 C.ar    1  UNL1        0.0963
     13 C         139.0055  139.5089  167.1450 C.3     1  UNL1        0.2525
     14 O         139.7613  140.3071  166.1244 O.3     1  UNL1       -0.4700
     15 C         141.4516  137.9941  161.7895 C.2     1  UNL1        0.0079
     16 C         141.9855  138.7348  160.5994 C.2     1  UNL1        0.0937
     17 C         141.7236  138.2190  159.2154 C.2     1  UNL1        0.3691
     18 N         142.7659  137.4035  158.5093 N.2     1  UNL1       -0.0400
     19 C         142.5040  136.8877  157.1253 C.2     1  UNL1        0.1818
     20 C         143.5463  136.0722  156.4191 C.3     1  UNL1        0.1000
     21 C         143.2844  135.5564  155.0352 C.2     1  UNL1       -0.0174
     22 C         141.9802  135.8560  154.3574 C.2     1  UNL1       -0.0038
     23 C         140.9379  136.6715  155.0636 C.2     1  UNL1        0.0101
     24 C         141.1998  137.1873  156.4475 C.2     1  UNL1        0.1209
     25 C         140.1575  138.0028  157.1537 C.2     1  UNL1        0.3788
     26 O         138.8534  138.3024  156.4760 O.2     1  UNL1       -0.2376
     27 N         140.4194  138.5186  158.5377 N.am    1  UNL1        0.0364
@<TRIPOS>BOND
     1    13    14    1
     2    14     1    1
     3     1     2   ar
     4     2     3   ar
     5     3    15    1
     6    15    16    2
     7    16    17    1
     8    17    18    1
     9    18    19    2
    10    19    20    1
    11    20    21    1
    12    21    22    2
    13    22    23    1
    14    23    24    2
    15    24    25    1
    16    25    26    2
    17    25    27    1
    18     3     4   ar
    19     4     5   ar
    20     5     6   ar
    21     6     7    1
    22     7     8   ar
    23     8     9   ar
    24     9    10   ar
    25    10    11    1
    26    10    12   ar
    27     6     1   ar
    28    12     7   ar
    29    27    17    2
    30    24    19    1
@<TRIPOS>MOLECULE
*****
 27 30 0 0 0
SMALL
GASTEIGER

@<TRIPOS>ATOM
      1 C         139.9549  137.2908  156.7375 C.ar    1  UNL1        0.1547
      2 C         139.7546  138.2262  157.8928 C.ar    1  UNL1        0.0384
      3 C         140.9313  138.6725  158.7091 C.ar    1  UNL1        0.0034
      4 C         142.3081  138.1833  158.3701 C.ar    1  UNL1        0.0017
      5 C         142.5083  137.2478  157.2147 C.ar    1  UNL1        0.0206
      6 C         141.3317  136.8016  156.3984 C.ar    1  UNL1        0.0994
      7 N         141.5319  135.8661  155.2431 N.ar    1  UNL1       -0.2839
      8 C         141.6602  136.2602  153.8015 C.ar    1  UNL1        0.1826
      9 N         141.8466  135.0099  152.9939 N.ar    1  UNL1       -0.2280
     10 C         141.8335  133.8431  153.9365 C.ar    1  UNL1        0.0786
     11 C         141.9878  132.4005  153.5559 C.3     1  UNL1        0.0538
     12 C         141.6391  134.3722  155.3265 C.ar    1  UNL1        0.0963
     13 C         138.3101  137.6755  154.7634 C.3     1  UNL1        0.2525
     14 O         138.7782  136.8445  155.9212 O.3     1  UNL1       -0.4700
     15 C         140.7311  139.6080  159.8644 C.2     1  UNL1        0.0079
     16 C         140.9235  141.0836  159.6766 C.2     1  UNL1        0.0937
     17 C         140.7232  142.0192  160.8320 C.2     1  UNL1        0.3691
     18 N         139.4154  142.0349  161.5664 N.2     1  UNL1       -0.0400
     19 C         139.2152  142.9704  162.7217 C.2     1  UNL1        0.1818
     20 C         137.9074  142.9861  163.4561 C.3     1  UNL1        0.1000
     21 C         137.7072  143.9216  164.6114 C.2     1  UNL1       -0.0174
     22 C         138.8149  144.8415  165.0322 C.2     1  UNL1       -0.0038
     23 C         140.1226  144.8258  164.2979 C.2     1  UNL1        0.0101
     24 C         140.3228  143.8902  163.1426 C.2     1  UNL1        0.1209
     25 C         141.6307  143.8745  162.4081 C.2     1  UNL1        0.3788
     26 O         142.7383  144.7943  162.8290 O.2     1  UNL1       -0.2376
     27 N         141.8308  142.9390  161.2528 N.am    1  UNL1        0.0364
@<TRIPOS>BOND
     1    13    14    1
     2    14     1    1
     3     1     2   ar
     4     2     3   ar
     5     3    15    1
     6    15    16    2
     7    16    17    1
     8    17    18    1
     9    18    19    2
    10    19    20    1
    11    20    21    1
    12    21    22    2
    13    22    23    1
    14    23    24    2
    15    24    25    1
    16    25    26    2
    17    25    27    1
    18     3     4   ar
    19     4     5   ar
    20     5     6   ar
    21     6     7    1
    22     7     8   ar
    23     8     9   ar
    24     9    10   ar
    25    10    11    1
    26    10    12   ar
    27     6     1   ar
    28    12     7   ar
    29    27    17    2
    30    24    19    1
@<TRIPOS>MOLECULE
*****
 27 30 0 0 0
SMALL
GASTEIGER

@<TRIPOS>ATOM
      1 C         140.6330  143.4429  160.1448 C.ar    1  UNL1        0.1547
      2 C         140.4233  142.9271  161.5376 C.ar    1  UNL1        0.0384
      3 C         140.1461  143.8849  162.6583 C.ar    1  UNL1        0.0034
      4 C         140.0787  145.3584  162.3861 C.ar    1  UNL1        0.0017
      5 C         140.2884  145.8742  160.9932 C.ar    1  UNL1        0.0206
      6 C         140.5655  144.9164  159.8726 C.ar    1  UNL1        0.0994
      7 N         140.7752  145.4322  158.4798 N.ar    1  UNL1       -0.2839
      8 C         142.0777  145.4589  157.7363 C.ar    1  UNL1        0.1826
      9 N         141.8267  146.0551  156.3828 N.ar    1  UNL1       -0.2280
     10 C         140.3690  146.3968  156.2900 C.ar    1  UNL1        0.0786
     11 C         139.6819  147.0149  155.1086 C.3     1  UNL1        0.0538
     12 C         139.7192  146.0119  157.5859 C.ar    1  UNL1        0.0963
     13 C         142.1859  141.6961  159.0102 C.3     1  UNL1        0.2525
     14 O         140.9102  142.4851  159.0242 O.3     1  UNL1       -0.4700
     15 C         139.9365  143.3691  164.0512 C.2     1  UNL1        0.0079
     16 C         140.8590  142.3279  164.6121 C.2     1  UNL1        0.0937
     17 C         140.6493  141.8120  166.0050 C.2     1  UNL1        0.3691
     18 N         141.4412  142.3835  167.1435 N.2     1  UNL1       -0.0400
     19 C         141.2315  141.8677  168.5364 C.2     1  UNL1        0.1818
     20 C         142.0234  142.4392  169.6749 C.3     1  UNL1        0.1000
     21 C         141.8137  141.9234  171.0677 C.2     1  UNL1       -0.0174
     22 C         140.8122  140.8360  171.3220 C.2     1  UNL1       -0.0038
     23 C         140.0203  140.2645  170.1834 C.2     1  UNL1        0.0101
     24 C         140.2300  140.7804  168.7906 C.2     1  UNL1        0.1209
     25 C         139.4382  140.2088  167.6520 C.2     1  UNL1        0.3788
     26 O         138.4366  139.1215  167.9063 O.2     1  UNL1       -0.2376
     27 N         139.6478  140.7247  166.2592 N.am    1  UNL1        0.0364
@<TRIPOS>BOND
     1    13    14    1
     2    14     1    1
     3     1     2   ar
     4     2     3   ar
     5     3    15    1
     6    15    16    2
     7    16    17    1
     8    17    18    1
     9    18    19    2
    10    19    20    1
    11    20    21    1
    12    21    22    2
    13    22    23    1
    14    23    24    2
    15    24    25    1
    16    25    26    2
    17    25    27    1
    18     3     4   ar
    19     4     5   ar
    20     5     6   ar
    21     6     7    1
    22     7     8   ar
    23     8     9   ar
    24     9    10   ar
    25    10    11    1
    26    10    12   ar
    27     6     1   ar
    28    12     7   ar
    29    27    17    2
    30    24    19    1
