@<TRIPOS>MOLECULE
*****
 47 50 0 0 0
SMALL
GASTEIGER

@<TRIPOS>ATOM
      1 C         140.6798  144.8918  160.1871 C.3     1  UNL1        0.0412
      2 C         140.1935  145.3936  158.8598 C.3     1  UNL1        0.0249
      3 C         141.0846  144.8260  157.7950 C.3     1  UNL1        0.0935
      4 N         142.1216  143.9735  158.4643 N.am    1  UNL1       -0.2795
      5 C         143.2166  143.2137  157.7760 C.2     1  UNL1        0.2256
      6 O         143.3430  143.2683  156.2823 O.2     1  UNL1       -0.2749
      7 C         141.8714  144.0142  159.9427 C.3     1  UNL1        0.0951
      8 C         140.0797  145.2116  161.5242 C.3     1  UNL1        0.0914
      9 C         140.8684  144.2066  163.7865 C.2     1  UNL1        0.2458
     10 O         141.8498  145.3300  163.9434 O.2     1  UNL1       -0.2701
     11 N         139.9833  144.1474  162.5769 N.am    1  UNL1       -0.3008
     12 H         139.3392  143.4100  162.4739 H       1  UNL1        0.1497
     13 C         140.5793  141.0139  166.9445 C.ar    1  UNL1        0.1306
     14 C         140.0794  140.7432  165.5564 C.ar    1  UNL1        0.0110
     15 C         140.1758  141.8075  164.5038 C.ar    1  UNL1        0.0032
     16 C         140.7720  143.1423  164.8392 C.ar    1  UNL1        0.0529
     17 C         141.2719  143.4130  166.2272 C.ar    1  UNL1        0.0032
     18 C         141.1756  142.3487  167.2799 C.ar    1  UNL1        0.0110
     19 C         139.4831  139.4083  165.2210 C.3     1  UNL1        0.0218
     20 C         138.1112  140.0142  165.2481 C.3     1  UNL1        0.0045
     21 C         140.8550  138.8024  165.1938 C.3     1  UNL1        0.0045
     22 C         138.8869  138.0734  164.8855 C.3     1  UNL1        0.0045
     23 C         141.6756  142.6194  168.6680 C.3     1  UNL1        0.0218
     24 C         140.3666  143.2653  169.0135 C.3     1  UNL1        0.0045
     25 C         142.9845  141.9736  168.3226 C.3     1  UNL1        0.0045
     26 C         142.1755  142.8901  170.0561 C.3     1  UNL1        0.0045
     27 C         139.2811  139.8868  168.8924 C.3     1  UNL1        0.2524
     28 O         140.4830  139.9496  167.9972 O.3     1  UNL1       -0.4721
     29 C         144.1851  142.3993  158.5813 C.3     1  UNL1        0.0853
     30 C         144.4053  140.9528  158.2507 C.3     1  UNL1        0.0096
     31 C         143.5765  139.8961  158.9189 C.3     1  UNL1        0.0012
     32 C         143.8183  139.5525  160.3587 C.3     1  UNL1        0.0087
     33 C         142.9052  140.0883  161.4214 C.3     1  UNL1        0.0446
     34 C         141.4466  139.7392  161.4028 C.ar    1  UNL1       -0.0183
     35 C         140.4183  140.8209  161.2525 C.ar    1  UNL1       -0.0017
     36 C         138.9596  140.4718  161.2340 C.ar    1  UNL1        0.0293
     37 C         138.5292  139.0409  161.3657 C.ar    1  UNL1        0.1401
     38 F         137.0705  138.6918  161.3472 F       1  UNL1       -0.2042
     39 C         139.5574  137.9592  161.5160 C.ar    1  UNL1        0.0293
     40 C         141.0161  138.3083  161.5345 C.ar    1  UNL1       -0.0017
     41 C         143.4508  140.9733  162.5025 C.ar    1  UNL1       -0.0183
     42 C         143.8880  142.3711  162.1784 C.ar    1  UNL1       -0.0017
     43 C         144.4336  143.2562  163.2596 C.ar    1  UNL1        0.0293
     44 C         144.5422  142.7434  164.6650 C.ar    1  UNL1        0.1401
     45 F         145.0879  143.6284  165.7462 F       1  UNL1       -0.2042
     46 C         144.1051  141.3456  164.9892 C.ar    1  UNL1        0.0293
     47 C         143.5595  140.4605  163.9081 C.ar    1  UNL1       -0.0017
@<TRIPOS>BOND
     1    27    28    1
     2    28    13    1
     3    13    14   ar
     4    14    19    1
     5    19    20    1
     6    19    21    1
     7    19    22    1
     8    14    15   ar
     9    15    16   ar
    10    16     9    1
    11     9    10    2
    12     9    11   am
    13    11     8    1
    14     8     1    1
    15     1     2    1
    16     2     3    1
    17     3     4    1
    18     4     5   am
    19     5     6    2
    20     5    29    1
    21    29    30    1
    22    30    31    1
    23    31    32    1
    24    32    33    1
    25    33    34    1
    26    34    35   ar
    27    35    36   ar
    28    36    37   ar
    29    37    38    1
    30    37    39   ar
    31    39    40   ar
    32    33    41    1
    33    41    42   ar
    34    42    43   ar
    35    43    44   ar
    36    44    45    1
    37    44    46   ar
    38    46    47   ar
    39     4     7    1
    40    16    17   ar
    41    17    18   ar
    42    18    23    1
    43    23    24    1
    44    23    25    1
    45    23    26    1
    46    18    13   ar
    47     7     1    1
    48    40    34   ar
    49    47    41   ar
    50    11    12    1
@<TRIPOS>MOLECULE
*****
 47 50 0 0 0
SMALL
GASTEIGER

@<TRIPOS>ATOM
      1 C         140.6235  144.9091  160.2862 C.3     1  UNL1        0.0412
      2 C         140.3321  145.5760  158.9746 C.3     1  UNL1        0.0249
      3 C         141.2296  144.9698  157.9368 C.3     1  UNL1        0.0935
      4 N         142.0758  143.9282  158.6071 N.am    1  UNL1       -0.2795
      5 C         143.1142  143.0742  157.9421 C.2     1  UNL1        0.2256
      6 O         143.3810  143.2246  156.4737 O.2     1  UNL1       -0.2749
      7 C         141.7012  143.8908  160.0591 C.3     1  UNL1        0.0951
      8 C         139.9547  145.2081  161.5952 C.3     1  UNL1        0.0914
      9 C         140.7986  144.1976  163.8350 C.2     1  UNL1        0.2458
     10 O         141.8044  145.3039  163.9551 O.2     1  UNL1       -0.2701
     11 N         139.8738  144.1497  162.6550 N.am    1  UNL1       -0.3008
     12 H         139.2136  143.4236  162.5762 H       1  UNL1        0.1497
     13 C         140.5557  141.0225  167.0146 C.ar    1  UNL1        0.1306
     14 C         141.1422  142.3646  167.3381 C.ar    1  UNL1        0.0110
     15 C         141.2232  143.4230  166.2783 C.ar    1  UNL1        0.0032
     16 C         140.7176  143.1393  164.8948 C.ar    1  UNL1        0.0529
     17 C         140.1311  141.7972  164.5713 C.ar    1  UNL1        0.0032
     18 C         140.0502  140.7388  165.6311 C.ar    1  UNL1        0.0110
     19 C         141.6479  142.6484  168.7216 C.3     1  UNL1        0.0218
     20 C         140.3477  143.3155  169.0600 C.3     1  UNL1        0.0045
     21 C         142.9480  141.9813  168.3832 C.3     1  UNL1        0.0045
     22 C         142.1535  142.9321  170.1050 C.3     1  UNL1        0.0045
     23 C         139.4636  139.3967  165.3075 C.3     1  UNL1        0.0218
     24 C         138.0834  139.9748  165.4117 C.3     1  UNL1        0.0045
     25 C         140.8438  138.8185  165.2034 C.3     1  UNL1        0.0045
     26 C         138.8770  138.0546  164.9839 C.3     1  UNL1        0.0045
     27 C         139.2979  139.9215  169.0034 C.3     1  UNL1        0.2524
     28 O         140.4748  139.9641  168.0744 O.3     1  UNL1       -0.4721
     29 C         143.8858  142.0696  158.7454 C.3     1  UNL1        0.0853
     30 C         144.0219  140.6596  158.2521 C.3     1  UNL1        0.0096
     31 C         143.5513  139.5182  159.1040 C.3     1  UNL1        0.0012
     32 C         143.9003  139.4772  160.5622 C.3     1  UNL1        0.0087
     33 C         142.9575  140.0554  161.5757 C.3     1  UNL1        0.0446
     34 C         143.4733  140.9798  162.6383 C.ar    1  UNL1       -0.0183
     35 C         143.8921  142.3749  162.2800 C.ar    1  UNL1       -0.0017
     36 C         144.4080  143.2993  163.3427 C.ar    1  UNL1        0.0293
     37 C         144.5050  142.8287  164.7637 C.ar    1  UNL1        0.1401
     38 F         145.0208  143.7532  165.8264 F       1  UNL1       -0.2042
     39 C         144.0862  141.4337  165.1219 C.ar    1  UNL1        0.0293
     40 C         143.5704  140.5092  164.0592 C.ar    1  UNL1       -0.0017
     41 C         141.4989  139.7090  161.5263 C.ar    1  UNL1       -0.0183
     42 C         140.4746  140.7949  161.3789 C.ar    1  UNL1       -0.0017
     43 C         139.0160  140.4485  161.3296 C.ar    1  UNL1        0.0293
     44 C         138.5816  139.0162  161.4277 C.ar    1  UNL1        0.1401
     45 F         137.1230  138.6698  161.3784 F       1  UNL1       -0.2042
     46 C         139.6058  137.9302  161.5752 C.ar    1  UNL1        0.0293
     47 C         141.0644  138.2766  161.6245 C.ar    1  UNL1       -0.0017
@<TRIPOS>BOND
     1    27    28    1
     2    28    13    1
     3    13    14   ar
     4    14    19    1
     5    19    20    1
     6    19    21    1
     7    19    22    1
     8    14    15   ar
     9    15    16   ar
    10    16     9    1
    11     9    10    2
    12     9    11   am
    13    11     8    1
    14     8     1    1
    15     1     2    1
    16     2     3    1
    17     3     4    1
    18     4     5   am
    19     5     6    2
    20     5    29    1
    21    29    30    1
    22    30    31    1
    23    31    32    1
    24    32    33    1
    25    33    34    1
    26    34    35   ar
    27    35    36   ar
    28    36    37   ar
    29    37    38    1
    30    37    39   ar
    31    39    40   ar
    32    33    41    1
    33    41    42   ar
    34    42    43   ar
    35    43    44   ar
    36    44    45    1
    37    44    46   ar
    38    46    47   ar
    39     4     7    1
    40    16    17   ar
    41    17    18   ar
    42    18    23    1
    43    23    24    1
    44    23    25    1
    45    23    26    1
    46    18    13   ar
    47     7     1    1
    48    40    34   ar
    49    47    41   ar
    50    11    12    1
@<TRIPOS>MOLECULE
*****
 47 50 0 0 0
SMALL
GASTEIGER

@<TRIPOS>ATOM
      1 C         140.7326  144.8938  160.0993 C.3     1  UNL1        0.0412
      2 C         140.1996  145.3562  158.7757 C.3     1  UNL1        0.0249
      3 C         141.0827  144.7975  157.6996 C.3     1  UNL1        0.0935
      4 N         142.1615  143.9897  158.3583 N.am    1  UNL1       -0.2795
      5 C         143.2632  143.2519  157.6569 C.2     1  UNL1        0.2256
      6 O         143.3525  143.2834  156.1599 O.2     1  UNL1       -0.2749
      7 C         141.9451  144.0492  159.8414 C.3     1  UNL1        0.0951
      8 C         140.1545  145.2189  161.4448 C.3     1  UNL1        0.0914
      9 C         140.9059  144.2183  163.7217 C.2     1  UNL1        0.2458
     10 O         141.8704  145.3528  163.9019 O.2     1  UNL1       -0.2701
     11 N         140.0480  144.1513  162.4931 N.am    1  UNL1       -0.3008
     12 H         139.4149  143.4067  162.3748 H       1  UNL1        0.1497
     13 C         140.5863  141.0156  166.8666 C.ar    1  UNL1        0.1306
     14 C         140.0794  140.7572  165.4788 C.ar    1  UNL1        0.0110
     15 C         140.1860  141.8247  164.4304 C.ar    1  UNL1        0.0032
     16 C         140.7994  143.1508  164.7700 C.ar    1  UNL1        0.0529
     17 C         141.3063  143.4092  166.1579 C.ar    1  UNL1        0.0032
     18 C         141.1997  142.3416  167.2062 C.ar    1  UNL1        0.0110
     19 C         139.4659  139.4311  165.1391 C.3     1  UNL1        0.0218
     20 C         140.8315  138.8128  165.0865 C.3     1  UNL1        0.0045
     21 C         138.1004  140.0494  165.1918 C.3     1  UNL1        0.0045
     22 C         138.8524  138.1051  164.7996 C.3     1  UNL1        0.0045
     23 C         141.7067  142.6002  168.5941 C.3     1  UNL1        0.0218
     24 C         140.4009  143.2465  168.9506 C.3     1  UNL1        0.0045
     25 C         143.0125  141.9538  168.2376 C.3     1  UNL1        0.0045
     26 C         142.2135  142.8587  169.9820 C.3     1  UNL1        0.0045
     27 C         139.2620  139.8726  168.7874 C.3     1  UNL1        0.2524
     28 O         140.4798  139.9481  167.9149 O.3     1  UNL1       -0.4721
     29 C         144.2756  142.4825  158.4525 C.3     1  UNL1        0.0853
     30 C         144.4936  141.0239  158.1788 C.3     1  UNL1        0.0096
     31 C         143.6032  139.9997  158.8177 C.3     1  UNL1        0.0012
     32 C         143.8222  139.6029  160.2475 C.3     1  UNL1        0.0087
     33 C         142.9144  140.1291  161.3194 C.3     1  UNL1        0.0446
     34 C         143.4663  140.9997  162.4091 C.ar    1  UNL1       -0.0183
     35 C         143.5713  140.4726  163.8095 C.ar    1  UNL1       -0.0017
     36 C         144.1232  141.3432  164.8991 C.ar    1  UNL1        0.0293
     37 C         144.5702  142.7409  164.5884 C.ar    1  UNL1        0.1401
     38 F         145.1221  143.6116  165.6781 F       1  UNL1       -0.2042
     39 C         144.4652  143.2680  163.1880 C.ar    1  UNL1        0.0293
     40 C         143.9133  142.3974  162.0983 C.ar    1  UNL1       -0.0017
     41 C         141.4546  139.7846  161.3017 C.ar    1  UNL1       -0.0183
     42 C         141.0200  138.3539  161.4213 C.ar    1  UNL1       -0.0017
     43 C         139.5602  138.0094  161.4035 C.ar    1  UNL1        0.0293
     44 C         138.5350  139.0956  161.2661 C.ar    1  UNL1        0.1401
     45 F         137.0752  138.7511  161.2483 F       1  UNL1       -0.2042
     46 C         138.9695  140.5264  161.1465 C.ar    1  UNL1        0.0293
     47 C         140.4293  140.8708  161.1643 C.ar    1  UNL1       -0.0017
@<TRIPOS>BOND
     1    27    28    1
     2    28    13    1
     3    13    14   ar
     4    14    19    1
     5    19    20    1
     6    19    21    1
     7    19    22    1
     8    14    15   ar
     9    15    16   ar
    10    16     9    1
    11     9    10    2
    12     9    11   am
    13    11     8    1
    14     8     1    1
    15     1     2    1
    16     2     3    1
    17     3     4    1
    18     4     5   am
    19     5     6    2
    20     5    29    1
    21    29    30    1
    22    30    31    1
    23    31    32    1
    24    32    33    1
    25    33    34    1
    26    34    35   ar
    27    35    36   ar
    28    36    37   ar
    29    37    38    1
    30    37    39   ar
    31    39    40   ar
    32    33    41    1
    33    41    42   ar
    34    42    43   ar
    35    43    44   ar
    36    44    45    1
    37    44    46   ar
    38    46    47   ar
    39     4     7    1
    40    16    17   ar
    41    17    18   ar
    42    18    23    1
    43    23    24    1
    44    23    25    1
    45    23    26    1
    46    18    13   ar
    47     7     1    1
    48    40    34   ar
    49    47    41   ar
    50    11    12    1
@<TRIPOS>MOLECULE
*****
 47 50 0 0 0
SMALL
GASTEIGER

@<TRIPOS>ATOM
      1 C         140.6555  144.7991  160.0894 C.3     1  UNL1        0.0412
      2 C         140.0948  145.2034  158.7581 C.3     1  UNL1        0.0249
      3 C         140.9989  144.6621  157.6906 C.3     1  UNL1        0.0935
      4 N         142.1183  143.9231  158.3622 N.am    1  UNL1       -0.2795
      5 C         143.2511  143.2224  157.6723 C.2     1  UNL1        0.2256
      6 O         143.3320  143.2223  156.1745 O.2     1  UNL1       -0.2749
      7 C         141.9061  144.0078  159.8446 C.3     1  UNL1        0.0951
      8 C         140.0686  145.1283  161.4300 C.3     1  UNL1        0.0914
      9 C         140.8355  144.1677  163.7188 C.2     1  UNL1        0.2458
     10 O         141.7786  145.3218  163.8872 O.2     1  UNL1       -0.2701
     11 N         139.9805  144.0709  162.4902 N.am    1  UNL1       -0.3008
     12 H         139.3614  143.3134  162.3797 H       1  UNL1        0.1497
     13 C         140.5713  140.9954  166.8996 C.ar    1  UNL1        0.1306
     14 C         141.1598  142.3363  167.2246 C.ar    1  UNL1        0.0110
     15 C         141.2479  143.3937  166.1644 C.ar    1  UNL1        0.0032
     16 C         140.7474  143.1103  164.7791 C.ar    1  UNL1        0.0529
     17 C         140.1589  141.7694  164.4540 C.ar    1  UNL1        0.0032
     18 C         140.0708  140.7120  165.5143 C.ar    1  UNL1        0.0110
     19 C         141.6603  142.6198  168.6100 C.3     1  UNL1        0.0218
     20 C         140.3560  143.2797  168.9463 C.3     1  UNL1        0.0045
     21 C         142.9647  141.9598  168.2738 C.3     1  UNL1        0.0045
     22 C         142.1609  142.9032  169.9953 C.3     1  UNL1        0.0045
     23 C         139.4822  139.3711  165.1891 C.3     1  UNL1        0.0218
     24 C         140.8617  138.8042  165.0300 C.3     1  UNL1        0.0045
     25 C         138.1026  139.9380  165.3483 C.3     1  UNL1        0.0045
     26 C         138.8937  138.0303  164.8640 C.3     1  UNL1        0.0045
     27 C         139.3078  139.9059  168.8912 C.3     1  UNL1        0.2524
     28 O         140.4832  139.9380  167.9598 O.3     1  UNL1       -0.4721
     29 C         144.3030  142.5220  158.4802 C.3     1  UNL1        0.0853
     30 C         144.5620  141.0598  158.2678 C.3     1  UNL1        0.0096
     31 C         143.6287  140.0404  158.8505 C.3     1  UNL1        0.0012
     32 C         143.8081  139.5826  160.2675 C.3     1  UNL1        0.0087
     33 C         142.9000  140.0998  161.3436 C.3     1  UNL1        0.0446
     34 C         141.4433  139.7428  161.3313 C.ar    1  UNL1       -0.0183
     35 C         141.0217  138.3077  161.4440 C.ar    1  UNL1       -0.0017
     36 C         139.5649  137.9507  161.4317 C.ar    1  UNL1        0.0293
     37 C         138.5295  139.0289  161.3068 C.ar    1  UNL1        0.1401
     38 F         137.0726  138.6719  161.2945 F       1  UNL1       -0.2042
     39 C         138.9510  140.4640  161.1942 C.ar    1  UNL1        0.0293
     40 C         140.4079  140.8210  161.2064 C.ar    1  UNL1       -0.0017
     41 C         143.4489  140.9739  162.4319 C.ar    1  UNL1       -0.0183
     42 C         143.8635  142.3825  162.1253 C.ar    1  UNL1       -0.0017
     43 C         144.4124  143.2567  163.2137 C.ar    1  UNL1        0.0293
     44 C         144.5466  142.7223  164.6088 C.ar    1  UNL1        0.1401
     45 F         145.0955  143.5965  165.6971 F       1  UNL1       -0.2042
     46 C         144.1321  141.3137  164.9155 C.ar    1  UNL1        0.0293
     47 C         143.5832  140.4396  163.8272 C.ar    1  UNL1       -0.0017
@<TRIPOS>BOND
     1    27    28    1
     2    28    13    1
     3    13    14   ar
     4    14    19    1
     5    19    20    1
     6    19    21    1
     7    19    22    1
     8    14    15   ar
     9    15    16   ar
    10    16     9    1
    11     9    10    2
    12     9    11   am
    13    11     8    1
    14     8     1    1
    15     1     2    1
    16     2     3    1
    17     3     4    1
    18     4     5   am
    19     5     6    2
    20     5    29    1
    21    29    30    1
    22    30    31    1
    23    31    32    1
    24    32    33    1
    25    33    34    1
    26    34    35   ar
    27    35    36   ar
    28    36    37   ar
    29    37    38    1
    30    37    39   ar
    31    39    40   ar
    32    33    41    1
    33    41    42   ar
    34    42    43   ar
    35    43    44   ar
    36    44    45    1
    37    44    46   ar
    38    46    47   ar
    39     4     7    1
    40    16    17   ar
    41    17    18   ar
    42    18    23    1
    43    23    24    1
    44    23    25    1
    45    23    26    1
    46    18    13   ar
    47     7     1    1
    48    40    34   ar
    49    47    41   ar
    50    11    12    1
@<TRIPOS>MOLECULE
*****
 47 50 0 0 0
SMALL
GASTEIGER

@<TRIPOS>ATOM
      1 C         138.3912  140.4962  165.0875 C.3     1  UNL1        0.0412
      2 C         138.1037  139.1336  165.6451 C.3     1  UNL1        0.0249
      3 C         138.7981  139.0189  166.9697 C.3     1  UNL1        0.0935
      4 N         139.5147  140.3106  167.2308 N.am    1  UNL1       -0.2795
      5 C         140.3383  140.6326  168.4424 C.2     1  UNL1        0.2256
      6 O         140.5011  139.6137  169.5311 O.2     1  UNL1       -0.2749
      7 C         139.2632  141.2235  166.0675 C.3     1  UNL1        0.0951
      8 C         137.8938  141.0365  163.7795 C.3     1  UNL1        0.0914
      9 C         138.6148  142.2759  161.6129 C.2     1  UNL1        0.2458
     10 O         137.4474  143.2067  161.7570 O.2     1  UNL1       -0.2701
     11 N         138.8380  141.1908  162.6242 N.am    1  UNL1       -0.3008
     12 H         139.6042  140.5799  162.5296 H       1  UNL1        0.1497
     13 C         141.4472  142.7388  158.1470 C.ar    1  UNL1        0.1306
     14 C         140.2562  143.6426  158.2681 C.ar    1  UNL1        0.0110
     15 C         139.3121  143.4883  159.4235 C.ar    1  UNL1        0.0032
     16 C         139.5589  142.4302  160.4576 C.ar    1  UNL1        0.0529
     17 C         140.7499  141.5265  160.3364 C.ar    1  UNL1        0.0032
     18 C         141.6940  141.6808  159.1811 C.ar    1  UNL1        0.0110
     19 C         140.0093  144.7007  157.2340 C.3     1  UNL1        0.0218
     20 C         140.9169  145.6371  157.9753 C.3     1  UNL1        0.0045
     21 C         139.1018  143.7644  156.4926 C.3     1  UNL1        0.0045
     22 C         139.7624  145.7588  156.1998 C.3     1  UNL1        0.0045
     23 C         142.8851  140.7769  159.0600 C.3     1  UNL1        0.0218
     24 C         142.0053  139.6905  158.5163 C.3     1  UNL1        0.0045
     25 C         143.7649  141.8633  159.6036 C.3     1  UNL1        0.0045
     26 C         144.0760  139.8731  158.9388 C.3     1  UNL1        0.0045
     27 C         142.2063  142.0634  155.7558 C.3     1  UNL1        0.2524
     28 O         142.3913  142.8931  156.9916 O.3     1  UNL1       -0.4721
     29 C         140.9990  141.9736  168.5654 C.3     1  UNL1        0.0853
     30 C         142.4490  142.1303  168.2149 C.3     1  UNL1        0.0096
     31 C         142.9325  141.7661  166.8425 C.3     1  UNL1        0.0012
     32 C         143.0861  142.8285  165.7949 C.3     1  UNL1        0.0087
     33 C         142.6046  142.5783  164.3965 C.3     1  UNL1        0.0446
     34 C         141.8016  143.6240  163.6813 C.ar    1  UNL1       -0.0183
     35 C         142.2917  144.1859  162.3798 C.ar    1  UNL1       -0.0017
     36 C         141.4886  145.2317  161.6645 C.ar    1  UNL1        0.0293
     37 C         140.1956  145.7156  162.2509 C.ar    1  UNL1        0.1401
     38 F         139.3925  146.7614  161.5357 F       1  UNL1       -0.2042
     39 C         139.7056  145.1537  163.5525 C.ar    1  UNL1        0.0293
     40 C         140.5086  144.1079  164.2677 C.ar    1  UNL1       -0.0017
     41 C         142.9262  141.2822  163.7133 C.ar    1  UNL1       -0.0183
     42 C         141.8694  140.2275  163.5699 C.ar    1  UNL1       -0.0017
     43 C         142.1910  138.9314  162.8867 C.ar    1  UNL1        0.0293
     44 C         143.5695  138.6901  162.3469 C.ar    1  UNL1        0.1401
     45 F         143.8911  137.3940  161.6637 F       1  UNL1       -0.2042
     46 C         144.6264  139.7448  162.4902 C.ar    1  UNL1        0.0293
     47 C         144.3048  141.0408  163.1734 C.ar    1  UNL1       -0.0017
@<TRIPOS>BOND
     1    27    28    1
     2    28    13    1
     3    13    14   ar
     4    14    19    1
     5    19    20    1
     6    19    21    1
     7    19    22    1
     8    14    15   ar
     9    15    16   ar
    10    16     9    1
    11     9    10    2
    12     9    11   am
    13    11     8    1
    14     8     1    1
    15     1     2    1
    16     2     3    1
    17     3     4    1
    18     4     5   am
    19     5     6    2
    20     5    29    1
    21    29    30    1
    22    30    31    1
    23    31    32    1
    24    32    33    1
    25    33    34    1
    26    34    35   ar
    27    35    36   ar
    28    36    37   ar
    29    37    38    1
    30    37    39   ar
    31    39    40   ar
    32    33    41    1
    33    41    42   ar
    34    42    43   ar
    35    43    44   ar
    36    44    45    1
    37    44    46   ar
    38    46    47   ar
    39     4     7    1
    40    16    17   ar
    41    17    18   ar
    42    18    23    1
    43    23    24    1
    44    23    25    1
    45    23    26    1
    46    18    13   ar
    47     7     1    1
    48    40    34   ar
    49    47    41   ar
    50    11    12    1
@<TRIPOS>MOLECULE
*****
 47 50 0 0 0
SMALL
GASTEIGER

@<TRIPOS>ATOM
      1 C         141.2861  144.7077  160.3883 C.3     1  UNL1        0.0412
      2 C         141.0049  145.8347  159.4392 C.3     1  UNL1        0.0249
      3 C         140.2387  145.2801  158.2750 C.3     1  UNL1        0.0935
      4 N         140.0464  143.8102  158.5046 N.am    1  UNL1       -0.2795
      5 C         139.3322  142.8608  157.5888 C.2     1  UNL1        0.2256
      6 O         138.7315  143.3621  156.3090 O.2     1  UNL1       -0.2749
      7 C         140.6937  143.4565  159.8107 C.3     1  UNL1        0.0951
      8 C         142.0292  144.8133  161.6870 C.3     1  UNL1        0.0914
      9 C         142.8096  143.4207  163.7368 C.2     1  UNL1        0.2458
     10 O         144.2097  143.9235  163.5453 O.2     1  UNL1       -0.2701
     11 N         141.7193  143.8656  162.8077 N.am    1  UNL1       -0.3008
     12 H         140.8003  143.5356  162.9333 H       1  UNL1        0.1497
     13 C         141.8800  140.5776  167.0987 C.ar    1  UNL1        0.1306
     14 C         142.0722  142.0378  167.3828 C.ar    1  UNL1        0.0110
     15 C         142.3821  142.9855  166.2622 C.ar    1  UNL1        0.0032
     16 C         142.4997  142.4730  164.8574 C.ar    1  UNL1        0.0529
     17 C         142.3074  141.0128  164.5733 C.ar    1  UNL1        0.0032
     18 C         141.9975  140.0651  165.6939 C.ar    1  UNL1        0.0110
     19 C         141.9547  142.5503  168.7877 C.3     1  UNL1        0.0218
     20 C         143.4397  142.4252  168.9577 C.3     1  UNL1        0.0045
     21 C         140.4696  142.6754  168.6177 C.3     1  UNL1        0.0045
     22 C         141.8370  143.0629  170.1925 C.3     1  UNL1        0.0045
     23 C         141.8052  138.6048  165.4097 C.3     1  UNL1        0.0218
     24 C         140.3177  138.7925  165.4520 C.3     1  UNL1        0.0045
     25 C         143.2928  138.4171  165.3673 C.3     1  UNL1        0.0045
     26 C         141.6129  137.1446  165.1255 C.3     1  UNL1        0.0045
     27 C         142.6835  139.0466  169.0379 C.3     1  UNL1        0.2524
     28 O         141.5701  139.6299  168.2193 O.3     1  UNL1       -0.4721
     29 C         139.2186  141.4101  157.9529 C.3     1  UNL1        0.0853
     30 C         137.8938  140.8428  158.3691 C.3     1  UNL1        0.0096
     31 C         137.8223  139.8498  159.4911 C.3     1  UNL1        0.0012
     32 C         137.5864  140.3208  160.8955 C.3     1  UNL1        0.0087
     33 C         138.7489  140.6958  161.7661 C.3     1  UNL1        0.0446
     34 C         138.6322  141.8496  162.7173 C.ar    1  UNL1       -0.0183
     35 C         138.1850  143.1913  162.2175 C.ar    1  UNL1       -0.0017
     36 C         138.0682  144.3453  163.1687 C.ar    1  UNL1        0.0293
     37 C         138.3987  144.1575  164.6198 C.ar    1  UNL1        0.1401
     38 F         138.2819  145.3114  165.5710 F       1  UNL1       -0.2042
     39 C         138.8458  142.8158  165.1196 C.ar    1  UNL1        0.0293
     40 C         138.9626  141.6618  164.1683 C.ar    1  UNL1       -0.0017
     41 C         140.0282  139.9168  161.6854 C.ar    1  UNL1       -0.0183
     42 C         140.0234  138.4383  161.9383 C.ar    1  UNL1       -0.0017
     43 C         141.3027  137.6593  161.8576 C.ar    1  UNL1        0.0293
     44 C         142.5870  138.3588  161.5240 C.ar    1  UNL1        0.1401
     45 F         143.8663  137.5798  161.4434 F       1  UNL1       -0.2042
     46 C         142.5919  139.8373  161.2712 C.ar    1  UNL1        0.0293
     47 C         141.3126  140.6163  161.3518 C.ar    1  UNL1       -0.0017
@<TRIPOS>BOND
     1    27    28    1
     2    28    13    1
     3    13    14   ar
     4    14    19    1
     5    19    20    1
     6    19    21    1
     7    19    22    1
     8    14    15   ar
     9    15    16   ar
    10    16     9    1
    11     9    10    2
    12     9    11   am
    13    11     8    1
    14     8     1    1
    15     1     2    1
    16     2     3    1
    17     3     4    1
    18     4     5   am
    19     5     6    2
    20     5    29    1
    21    29    30    1
    22    30    31    1
    23    31    32    1
    24    32    33    1
    25    33    34    1
    26    34    35   ar
    27    35    36   ar
    28    36    37   ar
    29    37    38    1
    30    37    39   ar
    31    39    40   ar
    32    33    41    1
    33    41    42   ar
    34    42    43   ar
    35    43    44   ar
    36    44    45    1
    37    44    46   ar
    38    46    47   ar
    39     4     7    1
    40    16    17   ar
    41    17    18   ar
    42    18    23    1
    43    23    24    1
    44    23    25    1
    45    23    26    1
    46    18    13   ar
    47     7     1    1
    48    40    34   ar
    49    47    41   ar
    50    11    12    1
@<TRIPOS>MOLECULE
*****
 47 50 0 0 0
SMALL
GASTEIGER

@<TRIPOS>ATOM
      1 C         144.5292  142.0034  159.7218 C.3     1  UNL1        0.0412
      2 C         144.9866  142.5933  158.4207 C.3     1  UNL1        0.0249
      3 C         144.5906  141.6533  157.3209 C.3     1  UNL1        0.0935
      4 N         143.8884  140.4824  157.9423 N.am    1  UNL1       -0.2795
      5 C         143.3234  139.3024  157.2087 C.2     1  UNL1        0.2256
      6 O         143.4369  139.2231  155.7151 O.2     1  UNL1       -0.2749
      7 C         143.8505  140.6989  159.4261 C.3     1  UNL1        0.0951
      8 C         144.7175  142.6114  161.0801 C.3     1  UNL1        0.0914
      9 C         144.0574  142.1564  163.5513 C.2     1  UNL1        0.2458
     10 O         145.5076  142.0474  163.9186 O.2     1  UNL1       -0.2701
     11 N         143.6623  142.4384  162.1321 N.am    1  UNL1       -0.3008
     12 H         142.7105  142.5099  161.8910 H       1  UNL1        0.1497
     13 C         140.8918  141.6372  166.7073 C.ar    1  UNL1        0.1306
     14 C         142.3322  141.3849  167.0411 C.ar    1  UNL1        0.0110
     15 C         143.3874  141.5580  165.9892 C.ar    1  UNL1        0.0032
     16 C         143.0022  141.9833  164.6033 C.ar    1  UNL1        0.0529
     17 C         141.5618  142.2356  164.2694 C.ar    1  UNL1        0.0032
     18 C         140.5066  142.0626  165.3214 C.ar    1  UNL1        0.0110
     19 C         142.7175  140.9595  168.4270 C.3     1  UNL1        0.0218
     20 C         142.7374  142.3949  168.8621 C.3     1  UNL1        0.0045
     21 C         142.6976  139.5242  167.9920 C.3     1  UNL1        0.0045
     22 C         143.1028  140.5341  169.8129 C.3     1  UNL1        0.0045
     23 C         139.0661  142.3149  164.9875 C.3     1  UNL1        0.0218
     24 C         138.8959  140.8684  164.6290 C.3     1  UNL1        0.0045
     25 C         139.2363  143.7614  165.3459 C.3     1  UNL1        0.0045
     26 C         137.6257  142.5672  164.6535 C.3     1  UNL1        0.0045
     27 C         139.3354  140.0922  168.1002 C.3     1  UNL1        0.2524
     28 O         139.8366  141.4642  167.7592 O.3     1  UNL1       -0.4721
     29 C         142.6447  138.2015  157.9687 C.3     1  UNL1        0.0853
     30 C         141.1471  138.1464  158.0318 C.3     1  UNL1        0.0096
     31 C         140.3421  139.3988  157.8487 C.3     1  UNL1        0.0012
     32 C         139.3580  139.8183  158.9000 C.3     1  UNL1        0.0087
     33 C         139.8462  140.3529  160.2138 C.3     1  UNL1        0.0446
     34 C         139.9870  141.8324  160.4158 C.ar    1  UNL1       -0.0183
     35 C         139.1199  142.5388  161.4154 C.ar    1  UNL1       -0.0017
     36 C         139.2607  144.0184  161.6174 C.ar    1  UNL1        0.0293
     37 C         140.2686  144.7917  160.8200 C.ar    1  UNL1        0.1401
     38 F         140.4095  146.2714  161.0220 F       1  UNL1       -0.2042
     39 C         141.1358  144.0854  159.8204 C.ar    1  UNL1        0.0293
     40 C         140.9949  142.6057  159.6184 C.ar    1  UNL1       -0.0017
     41 C         140.1935  139.4077  161.3255 C.ar    1  UNL1       -0.0183
     42 C         139.1684  138.4372  161.8328 C.ar    1  UNL1       -0.0017
     43 C         139.5157  137.4920  162.9445 C.ar    1  UNL1        0.0293
     44 C         140.8883  137.5172  163.5490 C.ar    1  UNL1        0.1401
     45 F         141.2356  136.5720  164.6608 F       1  UNL1       -0.2042
     46 C         141.9135  138.4877  163.0418 C.ar    1  UNL1        0.0293
     47 C         141.5662  139.4329  161.9301 C.ar    1  UNL1       -0.0017
@<TRIPOS>BOND
     1    27    28    1
     2    28    13    1
     3    13    14   ar
     4    14    19    1
     5    19    20    1
     6    19    21    1
     7    19    22    1
     8    14    15   ar
     9    15    16   ar
    10    16     9    1
    11     9    10    2
    12     9    11   am
    13    11     8    1
    14     8     1    1
    15     1     2    1
    16     2     3    1
    17     3     4    1
    18     4     5   am
    19     5     6    2
    20     5    29    1
    21    29    30    1
    22    30    31    1
    23    31    32    1
    24    32    33    1
    25    33    34    1
    26    34    35   ar
    27    35    36   ar
    28    36    37   ar
    29    37    38    1
    30    37    39   ar
    31    39    40   ar
    32    33    41    1
    33    41    42   ar
    34    42    43   ar
    35    43    44   ar
    36    44    45    1
    37    44    46   ar
    38    46    47   ar
    39     4     7    1
    40    16    17   ar
    41    17    18   ar
    42    18    23    1
    43    23    24    1
    44    23    25    1
    45    23    26    1
    46    18    13   ar
    47     7     1    1
    48    40    34   ar
    49    47    41   ar
    50    11    12    1
@<TRIPOS>MOLECULE
*****
 47 50 0 0 0
SMALL
GASTEIGER

@<TRIPOS>ATOM
      1 C         144.4821  141.9118  159.7176 C.3     1  UNL1        0.0412
      2 C         144.9250  142.5205  158.4201 C.3     1  UNL1        0.0249
      3 C         144.5101  141.6001  157.3108 C.3     1  UNL1        0.0935
      4 N         143.8107  140.4225  157.9226 N.am    1  UNL1       -0.2795
      5 C         143.2305  139.2569  157.1778 C.2     1  UNL1        0.2256
      6 O         143.3240  139.2013  155.6817 O.2     1  UNL1       -0.2749
      7 C         143.7935  140.6152  159.4101 C.3     1  UNL1        0.0951
      8 C         144.6912  142.4970  161.0829 C.3     1  UNL1        0.0914
      9 C         144.0402  142.1108  163.5682 C.2     1  UNL1        0.2458
     10 O         145.4923  142.0584  163.9404 O.2     1  UNL1       -0.2701
     11 N         143.6397  142.3302  162.1394 N.am    1  UNL1       -0.3008
     12 H         142.6866  142.3646  161.8951 H       1  UNL1        0.1497
     13 C         140.8855  141.6102  166.7380 C.ar    1  UNL1        0.1306
     14 C         142.3293  141.3805  167.0738 C.ar    1  UNL1        0.0110
     15 C         143.3808  141.5473  166.0172 C.ar    1  UNL1        0.0032
     16 C         142.9886  141.9440  164.6248 C.ar    1  UNL1        0.0529
     17 C         141.5449  142.1737  164.2890 C.ar    1  UNL1        0.0032
     18 C         140.4934  142.0068  165.3456 C.ar    1  UNL1        0.0110
     19 C         142.7215  140.9838  168.4663 C.3     1  UNL1        0.0218
     20 C         142.7862  142.4297  168.8600 C.3     1  UNL1        0.0045
     21 C         142.6568  139.5379  168.0726 C.3     1  UNL1        0.0045
     22 C         143.1137  140.5871  169.8586 C.3     1  UNL1        0.0045
     23 C         139.0496  142.2366  165.0097 C.3     1  UNL1        0.0218
     24 C         138.9048  140.7896  164.6423 C.3     1  UNL1        0.0045
     25 C         139.1943  143.6837  165.3770 C.3     1  UNL1        0.0045
     26 C         137.6059  142.4663  164.6738 C.3     1  UNL1        0.0045
     27 C         139.2936  140.0792  168.1061 C.3     1  UNL1        0.2524
     28 O         139.8340  141.4433  167.7945 O.3     1  UNL1       -0.4721
     29 C         142.5569  138.1470  157.9289 C.3     1  UNL1        0.0853
     30 C         141.0602  138.1017  158.0174 C.3     1  UNL1        0.0096
     31 C         140.2615  139.3626  157.8679 C.3     1  UNL1        0.0012
     32 C         139.2902  139.7663  158.9371 C.3     1  UNL1        0.0087
     33 C         139.7935  140.3101  160.2413 C.3     1  UNL1        0.0446
     34 C         140.1541  139.3731  161.3556 C.ar    1  UNL1       -0.0183
     35 C         141.5449  139.3757  161.9173 C.ar    1  UNL1       -0.0017
     36 C         141.9055  138.4385  163.0316 C.ar    1  UNL1        0.0293
     37 C         140.8753  137.4988  163.5843 C.ar    1  UNL1        0.1401
     38 F         141.2359  136.5616  164.6987 F       1  UNL1       -0.2042
     39 C         139.4844  137.4962  163.0226 C.ar    1  UNL1        0.0293
     40 C         139.1238  138.4333  161.9083 C.ar    1  UNL1       -0.0017
     41 C         139.9362  141.7912  160.4311 C.ar    1  UNL1       -0.0183
     42 C         139.0838  142.5040  161.4387 C.ar    1  UNL1       -0.0017
     43 C         139.2265  143.9850  161.6285 C.ar    1  UNL1        0.0293
     44 C         140.2218  144.7535  160.8106 C.ar    1  UNL1        0.1401
     45 F         140.3645  146.2345  161.0004 F       1  UNL1       -0.2042
     46 C         141.0743  144.0408  159.8030 C.ar    1  UNL1        0.0293
     47 C         140.9315  142.5597  159.6132 C.ar    1  UNL1       -0.0017
@<TRIPOS>BOND
     1    27    28    1
     2    28    13    1
     3    13    14   ar
     4    14    19    1
     5    19    20    1
     6    19    21    1
     7    19    22    1
     8    14    15   ar
     9    15    16   ar
    10    16     9    1
    11     9    10    2
    12     9    11   am
    13    11     8    1
    14     8     1    1
    15     1     2    1
    16     2     3    1
    17     3     4    1
    18     4     5   am
    19     5     6    2
    20     5    29    1
    21    29    30    1
    22    30    31    1
    23    31    32    1
    24    32    33    1
    25    33    34    1
    26    34    35   ar
    27    35    36   ar
    28    36    37   ar
    29    37    38    1
    30    37    39   ar
    31    39    40   ar
    32    33    41    1
    33    41    42   ar
    34    42    43   ar
    35    43    44   ar
    36    44    45    1
    37    44    46   ar
    38    46    47   ar
    39     4     7    1
    40    16    17   ar
    41    17    18   ar
    42    18    23    1
    43    23    24    1
    44    23    25    1
    45    23    26    1
    46    18    13   ar
    47     7     1    1
    48    40    34   ar
    49    47    41   ar
    50    11    12    1
@<TRIPOS>MOLECULE
*****
 47 50 0 0 0
SMALL
GASTEIGER

@<TRIPOS>ATOM
      1 C         141.3208  144.6870  160.2697 C.3     1  UNL1        0.0412
      2 C         141.0992  145.8404  159.3366 C.3     1  UNL1        0.0249
      3 C         140.2577  145.3566  158.1931 C.3     1  UNL1        0.0935
      4 N         139.9592  143.9040  158.4193 N.am    1  UNL1       -0.2795
      5 C         139.1464  143.0205  157.5201 C.2     1  UNL1        0.2256
      6 O         138.5481  143.5776  156.2624 O.2     1  UNL1       -0.2749
      7 C         140.6162  143.4902  159.7027 C.3     1  UNL1        0.0951
      8 C         142.1086  144.7238  161.5456 C.3     1  UNL1        0.0914
      9 C         142.8163  143.4135  163.6745 C.2     1  UNL1        0.2458
     10 O         144.1974  143.9891  163.5697 O.2     1  UNL1       -0.2701
     11 N         141.7719  143.7808  162.6625 N.am    1  UNL1       -0.3008
     12 H         140.8654  143.4030  162.7313 H       1  UNL1        0.1497
     13 C         141.8061  140.5844  167.0250 C.ar    1  UNL1        0.1306
     14 C         142.0138  142.0421  167.3112 C.ar    1  UNL1        0.0110
     15 C         142.3506  142.9851  166.1943 C.ar    1  UNL1        0.0032
     16 C         142.4796  142.4705  164.7913 C.ar    1  UNL1        0.0529
     17 C         142.2719  141.0128  164.5052 C.ar    1  UNL1        0.0032
     18 C         141.9351  140.0698  165.6221 C.ar    1  UNL1        0.0110
     19 C         141.8848  142.5569  168.7142 C.3     1  UNL1        0.0218
     20 C         143.3661  142.4148  168.9026 C.3     1  UNL1        0.0045
     21 C         140.4035  142.6990  168.5258 C.3     1  UNL1        0.0045
     22 C         141.7557  143.0717  170.1172 C.3     1  UNL1        0.0045
     23 C         141.7274  138.6120  165.3359 C.3     1  UNL1        0.0218
     24 C         140.2419  138.8154  165.3782 C.3     1  UNL1        0.0045
     25 C         143.2129  138.4086  165.2936 C.3     1  UNL1        0.0045
     26 C         141.5196  137.1543  165.0497 C.3     1  UNL1        0.0045
     27 C         142.5642  139.0467  168.9771 C.3     1  UNL1        0.2524
     28 O         141.4694  139.6414  168.1419 O.3     1  UNL1       -0.4721
     29 C         138.9319  141.5798  157.8784 C.3     1  UNL1        0.0853
     30 C         137.7010  141.1694  158.6311 C.3     1  UNL1        0.0096
     31 C         137.7211  139.9379  159.4872 C.3     1  UNL1        0.0012
     32 C         137.6277  140.0601  160.9792 C.3     1  UNL1        0.0087
     33 C         138.8047  140.5550  161.7665 C.3     1  UNL1        0.0446
     34 C         140.1349  139.8748  161.6343 C.ar    1  UNL1       -0.0183
     35 C         141.3585  140.6778  161.3057 C.ar    1  UNL1       -0.0017
     36 C         142.6889  139.9975  161.1735 C.ar    1  UNL1        0.0293
     37 C         142.7957  138.5143  161.3701 C.ar    1  UNL1        0.1401
     38 F         144.1260  137.8341  161.2379 F       1  UNL1       -0.2042
     39 C         141.5721  137.7113  161.6987 C.ar    1  UNL1        0.0293
     40 C         140.2417  138.3916  161.8309 C.ar    1  UNL1       -0.0017
     41 C         138.6512  141.7302  162.6859 C.ar    1  UNL1       -0.0183
     42 C         138.2178  143.0583  162.1397 C.ar    1  UNL1       -0.0017
     43 C         138.0643  144.2335  163.0592 C.ar    1  UNL1        0.0293
     44 C         138.3444  144.0806  164.5248 C.ar    1  UNL1        0.1401
     45 F         138.1909  145.2558  165.4443 F       1  UNL1       -0.2042
     46 C         138.7778  142.7525  165.0711 C.ar    1  UNL1        0.0293
     47 C         138.9312  141.5773  164.1516 C.ar    1  UNL1       -0.0017
@<TRIPOS>BOND
     1    27    28    1
     2    28    13    1
     3    13    14   ar
     4    14    19    1
     5    19    20    1
     6    19    21    1
     7    19    22    1
     8    14    15   ar
     9    15    16   ar
    10    16     9    1
    11     9    10    2
    12     9    11   am
    13    11     8    1
    14     8     1    1
    15     1     2    1
    16     2     3    1
    17     3     4    1
    18     4     5   am
    19     5     6    2
    20     5    29    1
    21    29    30    1
    22    30    31    1
    23    31    32    1
    24    32    33    1
    25    33    34    1
    26    34    35   ar
    27    35    36   ar
    28    36    37   ar
    29    37    38    1
    30    37    39   ar
    31    39    40   ar
    32    33    41    1
    33    41    42   ar
    34    42    43   ar
    35    43    44   ar
    36    44    45    1
    37    44    46   ar
    38    46    47   ar
    39     4     7    1
    40    16    17   ar
    41    17    18   ar
    42    18    23    1
    43    23    24    1
    44    23    25    1
    45    23    26    1
    46    18    13   ar
    47     7     1    1
    48    40    34   ar
    49    47    41   ar
    50    11    12    1
