@<TRIPOS>MOLECULE
*****
 47 51 0 0 0
SMALL
GASTEIGER

@<TRIPOS>ATOM
      1 C         144.3715  142.3967  160.4977 C.ar    1  UNL1        0.0528
      2 C         142.9484  142.8661  160.4321 C.ar    1  UNL1        0.0148
      3 C         141.9459  142.3624  161.4276 C.ar    1  UNL1        0.0027
      4 C         142.3665  141.3893  162.4888 C.ar    1  UNL1        0.0180
      5 C         143.7896  140.9199  162.5545 C.ar    1  UNL1        0.0519
      6 C         144.7921  141.4236  161.5589 C.ar    1  UNL1        0.0294
      7 N         143.9097  139.9639  163.7041 N.am    1  UNL1       -0.2803
      8 C         142.5609  139.8425  164.3490 C.2     1  UNL1        0.2496
      9 O         142.2249  138.9898  165.5365 O.2     1  UNL1       -0.2698
     10 C         141.6070  140.7234  163.5979 C.2     1  UNL1        0.0560
     11 C         140.1497  140.9064  163.9024 C.2     1  UNL1        0.0196
     12 H         144.7299  139.4980  163.9859 H       1  UNL1        0.1552
     13 C         146.8488  141.8940  155.9578 C.2     1  UNL1        0.2548
     14 O         146.0823  140.6351  155.6789 O.2     1  UNL1       -0.2696
     15 N         146.6128  142.6491  157.2322 N.am    1  UNL1       -0.2358
     16 C         145.6102  142.1453  158.2278 C.2     1  UNL1        0.3104
     17 O         144.8436  140.8865  157.9489 O.2     1  UNL1       -0.2521
     18 N         145.3741  142.9004  159.5021 N.am    1  UNL1       -0.2680
     19 H         147.1159  143.4753  157.4152 H       1  UNL1        0.1594
     20 H         145.8773  143.7266  159.6852 H       1  UNL1        0.1564
     21 C         149.8566  143.4051  152.9713 C.ar    1  UNL1        0.1410
     22 C         150.2137  142.2729  153.8881 C.ar    1  UNL1        0.0372
     23 C         149.2111  141.7691  154.8836 C.ar    1  UNL1        0.0099
     24 C         147.8514  142.3977  154.9623 C.ar    1  UNL1        0.0814
     25 C         147.4943  143.5299  154.0455 C.ar    1  UNL1        0.1475
     26 F         146.1347  144.1585  154.1243 F       1  UNL1       -0.2039
     27 C         148.4970  144.0337  153.0500 C.ar    1  UNL1        0.0666
     28 C         152.3248  143.8447  152.2892 C.3     1  UNL1        0.2525
     29 O         150.8592  143.9089  151.9758 O.3     1  UNL1       -0.4714
     30 C         139.5252  140.1700  165.0502 C.2     1  UNL1        0.0626
     31 N         138.7467  138.8910  164.9583 N.2     1  UNL1       -0.2538
     32 C         138.3098  138.5138  166.3428 C.2     1  UNL1        0.0597
     33 C         137.5057  137.3033  166.7144 C.3     1  UNL1        0.0519
     34 C         138.8182  139.5596  167.2904 C.2     1  UNL1        0.0499
     35 C         139.5693  140.5831  166.4916 C.3     1  UNL1        0.0681
     36 C         140.2458  141.8053  167.0380 C.3     1  UNL1        0.0112
     37 C         138.6117  139.5785  168.7760 C.2     1  UNL1        0.2434
     38 O         139.7271  140.0074  169.6827 O.2     1  UNL1       -0.2704
     39 N         137.2900  139.1687  169.3549 N.am    1  UNL1       -0.2997
     40 H         136.5580  138.8873  168.7598 H       1  UNL1        0.1498
     41 C         137.0837  139.1877  170.8405 C.3     1  UNL1        0.1070
     42 C         135.7633  138.7739  171.4196 C.3     1  UNL1        0.0936
     43 N         135.7094  137.7222  172.4878 N.3     1  UNL1       -0.2712
     44 C         136.6810  136.5928  172.6629 C.3     1  UNL1        0.0722
     45 C         136.2465  135.7878  173.8517 C.3     1  UNL1        0.0188
     46 C         135.0064  136.4196  174.4113 C.3     1  UNL1        0.0188
     47 C         134.6745  137.6152  173.5683 C.3     1  UNL1        0.0722
@<TRIPOS>BOND
     1    28    29    1
     2    29    21    1
     3    21    22   ar
     4    22    23   ar
     5    23    24   ar
     6    24    13    1
     7    13    14    2
     8    13    15   am
     9    15    16   am
    10    16    17    2
    11    16    18   am
    12    18     1    1
    13     1     2   ar
    14     2     3   ar
    15     3     4   ar
    16     4     5   ar
    17     5     6   ar
    18     5     7    1
    19     7     8   am
    20     8     9    2
    21     8    10    1
    22    10    11    2
    23    11    30    1
    24    30    31    2
    25    31    32    1
    26    32    33    1
    27    32    34    2
    28    34    37    1
    29    37    38    2
    30    37    39   am
    31    39    41    1
    32    41    42    1
    33    42    43    1
    34    43    44    1
    35    44    45    1
    36    45    46    1
    37    46    47    1
    38    34    35    1
    39    35    36    1
    40    24    25   ar
    41    25    26    1
    42    25    27   ar
    43    27    21   ar
    44     6     1   ar
    45    35    30    1
    46    10     4    1
    47    47    43    1
    48    15    19    1
    49    18    20    1
    50     7    12    1
    51    39    40    1
@<TRIPOS>MOLECULE
*****
 47 51 0 0 0
SMALL
GASTEIGER

@<TRIPOS>ATOM
      1 C         140.0865  142.2951  152.9706 C.ar    1  UNL1        0.0528
      2 C         141.1688  141.7207  152.1054 C.ar    1  UNL1        0.0148
      3 C         141.5482  140.2757  152.2392 C.ar    1  UNL1        0.0027
      4 C         140.8453  139.4051  153.2382 C.ar    1  UNL1        0.0180
      5 C         139.7630  139.9795  154.1034 C.ar    1  UNL1        0.0519
      6 C         139.3836  141.4245  153.9696 C.ar    1  UNL1        0.0294
      7 N         139.2510  138.8855  154.9927 N.am    1  UNL1       -0.2803
      8 C         140.0169  137.6349  154.6772 C.2     1  UNL1        0.2496
      9 O         139.8301  136.2980  155.3313 O.2     1  UNL1       -0.2698
     10 C         141.0022  137.9560  153.5929 C.2     1  UNL1        0.0560
     11 C         141.9739  136.9966  152.9721 C.2     1  UNL1        0.0196
     12 H         138.5375  138.9729  155.6654 H       1  UNL1        0.1552
     13 C         139.9221  147.1047  154.9305 C.2     1  UNL1        0.2548
     14 O         140.5989  146.6195  156.1780 O.2     1  UNL1       -0.2696
     15 N         139.6248  146.1450  153.8167 N.am    1  UNL1       -0.2358
     16 C         140.0043  144.6999  153.9505 C.2     1  UNL1        0.3104
     17 O         140.6811  144.2147  155.1981 O.2     1  UNL1       -0.2521
     18 N         139.7070  143.7402  152.8368 N.am    1  UNL1       -0.2680
     19 H         139.1806  146.4635  152.9979 H       1  UNL1        0.1594
     20 H         139.2627  144.0587  152.0179 H       1  UNL1        0.1564
     21 C         138.7836  151.4397  154.5289 C.ar    1  UNL1        0.1410
     22 C         139.5046  150.7470  153.4107 C.ar    1  UNL1        0.0372
     23 C         139.8841  149.3020  153.5446 C.ar    1  UNL1        0.0099
     24 C         139.5426  148.5497  154.7966 C.ar    1  UNL1        0.0814
     25 C         138.8217  149.2425  155.9148 C.ar    1  UNL1        0.1475
     26 F         138.4802  148.4903  157.1668 F       1  UNL1       -0.2039
     27 C         138.4422  150.6875  155.7809 C.ar    1  UNL1        0.0666
     28 C         137.9783  153.4281  153.0633 C.3     1  UNL1        0.2525
     29 O         138.4041  152.8847  154.3951 O.3     1  UNL1       -0.4714
     30 C         142.0163  135.5695  153.4320 C.2     1  UNL1        0.0626
     31 N         141.2636  134.4240  152.8224 N.2     1  UNL1       -0.2538
     32 C         141.6009  133.1838  153.5958 C.2     1  UNL1        0.0597
     33 C         141.0703  131.8066  153.3286 C.3     1  UNL1        0.0519
     34 C         142.5621  133.5627  154.6833 C.2     1  UNL1        0.0499
     35 C         142.8188  135.0371  154.5820 C.3     1  UNL1        0.0681
     36 C         143.7198  135.8386  155.4742 C.3     1  UNL1        0.0112
     37 C         143.1614  132.6309  155.6945 C.2     1  UNL1        0.2434
     38 O         142.6873  132.6629  157.1173 O.2     1  UNL1       -0.2704
     39 N         144.2346  131.6672  155.2831 N.am    1  UNL1       -0.2997
     40 H         144.5458  131.6463  154.3493 H       1  UNL1        0.1498
     41 C         144.8339  130.7355  156.2944 C.3     1  UNL1        0.1070
     42 C         144.3231  129.3303  156.4147 C.3     1  UNL1        0.0936
     43 N         143.9068  128.7955  157.7528 N.3     1  UNL1       -0.2712
     44 C         142.6817  127.9762  158.0325 C.3     1  UNL1        0.0722
     45 C         142.6602  127.6605  159.4988 C.3     1  UNL1        0.0188
     46 C         143.8718  128.2847  160.1253 C.3     1  UNL1        0.0188
     47 C         144.6423  128.9861  159.0461 C.3     1  UNL1        0.0722
@<TRIPOS>BOND
     1    28    29    1
     2    29    21    1
     3    21    22   ar
     4    22    23   ar
     5    23    24   ar
     6    24    13    1
     7    13    14    2
     8    13    15   am
     9    15    16   am
    10    16    17    2
    11    16    18   am
    12    18     1    1
    13     1     2   ar
    14     2     3   ar
    15     3     4   ar
    16     4     5   ar
    17     5     6   ar
    18     5     7    1
    19     7     8   am
    20     8     9    2
    21     8    10    1
    22    10    11    2
    23    11    30    1
    24    30    31    2
    25    31    32    1
    26    32    33    1
    27    32    34    2
    28    34    37    1
    29    37    38    2
    30    37    39   am
    31    39    41    1
    32    41    42    1
    33    42    43    1
    34    43    44    1
    35    44    45    1
    36    45    46    1
    37    46    47    1
    38    34    35    1
    39    35    36    1
    40    24    25   ar
    41    25    26    1
    42    25    27   ar
    43    27    21   ar
    44     6     1   ar
    45    35    30    1
    46    10     4    1
    47    47    43    1
    48    15    19    1
    49    18    20    1
    50     7    12    1
    51    39    40    1
@<TRIPOS>MOLECULE
*****
 47 51 0 0 0
SMALL
GASTEIGER

@<TRIPOS>ATOM
      1 C         139.8005  139.5312  156.3538 C.ar    1  UNL1        0.0528
      2 C         140.8999  140.3494  156.9635 C.ar    1  UNL1        0.0148
      3 C         140.8804  141.8440  156.8381 C.ar    1  UNL1        0.0027
      4 C         139.7615  142.5204  156.1029 C.ar    1  UNL1        0.0180
      5 C         138.6621  141.7022  155.4931 C.ar    1  UNL1        0.0519
      6 C         138.6816  140.2076  155.6186 C.ar    1  UNL1        0.0294
      7 N         137.6973  142.6414  154.8322 N.am    1  UNL1       -0.2803
      8 C         138.2004  144.0401  155.0334 C.2     1  UNL1        0.2496
      9 O         137.5431  145.2936  154.5365 O.2     1  UNL1       -0.2698
     10 C         139.4761  143.9654  155.8188 C.2     1  UNL1        0.0560
     11 C         140.3187  145.1308  156.2451 C.2     1  UNL1        0.0196
     12 H         136.8777  142.3849  154.3508 H       1  UNL1        0.1552
     13 C         142.1069  134.9674  155.4301 C.2     1  UNL1        0.2548
     14 O         143.2212  135.6748  154.7174 O.2     1  UNL1       -0.2696
     15 N         140.9732  135.7546  156.0174 N.am    1  UNL1       -0.2358
     16 C         140.9537  137.2493  155.8919 C.2     1  UNL1        0.3104
     17 O         142.0680  137.9567  155.1792 O.2     1  UNL1       -0.2521
     18 N         139.8200  138.0365  156.4792 N.am    1  UNL1       -0.2680
     19 H         140.2419  135.2903  156.4852 H       1  UNL1        0.1594
     20 H         139.0887  137.5722  156.9470 H       1  UNL1        0.1564
     21 C         142.1652  130.4836  155.8064 C.ar    1  UNL1        0.1410
     22 C         141.1341  131.1506  154.9450 C.ar    1  UNL1        0.0372
     23 C         141.1147  132.6452  154.8196 C.ar    1  UNL1        0.0099
     24 C         142.1264  133.4728  155.5555 C.ar    1  UNL1        0.0814
     25 C         143.1574  132.8058  156.4169 C.ar    1  UNL1        0.1475
     26 F         144.1691  133.6334  157.1529 F       1  UNL1       -0.2039
     27 C         143.1768  131.3112  156.5423 C.ar    1  UNL1        0.0666
     28 C         143.4902  128.2509  155.9039 C.3     1  UNL1        0.2525
     29 O         142.1846  128.9890  155.9319 O.3     1  UNL1       -0.4714
     30 C         139.9043  146.5270  155.8859 C.2     1  UNL1        0.0626
     31 N         139.0111  147.4180  156.6974 N.2     1  UNL1       -0.2538
     32 C         138.8652  148.7190  155.9652 C.2     1  UNL1        0.0597
     33 C         138.0581  149.8995  156.4174 C.3     1  UNL1        0.0519
     34 C         139.6682  148.6321  154.7011 C.2     1  UNL1        0.0499
     35 C         140.3104  147.2774  154.6522 C.3     1  UNL1        0.0681
     36 C         141.2021  146.7632  153.5610 C.3     1  UNL1        0.0112
     37 C         139.8050  149.7104  153.6675 C.2     1  UNL1        0.2434
     38 O         139.6301  149.3828  152.2142 O.2     1  UNL1       -0.2704
     39 N         140.1168  151.1164  154.0871 N.am    1  UNL1       -0.2997
     40 H         140.2316  151.3314  155.0410 H       1  UNL1        0.1498
     41 C         140.2536  152.1947  153.0534 C.3     1  UNL1        0.1070
     42 C         140.7930  153.5400  153.4399 C.3     1  UNL1        0.0936
     43 N         142.2276  153.6821  153.8540 N.3     1  UNL1       -0.2712
     44 C         142.9721  154.9731  154.0251 C.3     1  UNL1        0.0722
     45 C         144.3743  154.6472  154.4466 C.3     1  UNL1        0.0188
     46 C         144.4964  153.1548  154.5360 C.3     1  UNL1        0.0188
     47 C         143.1697  152.5584  154.1697 C.3     1  UNL1        0.0722
@<TRIPOS>BOND
     1    28    29    1
     2    29    21    1
     3    21    22   ar
     4    22    23   ar
     5    23    24   ar
     6    24    13    1
     7    13    14    2
     8    13    15   am
     9    15    16   am
    10    16    17    2
    11    16    18   am
    12    18     1    1
    13     1     2   ar
    14     2     3   ar
    15     3     4   ar
    16     4     5   ar
    17     5     6   ar
    18     5     7    1
    19     7     8   am
    20     8     9    2
    21     8    10    1
    22    10    11    2
    23    11    30    1
    24    30    31    2
    25    31    32    1
    26    32    33    1
    27    32    34    2
    28    34    37    1
    29    37    38    2
    30    37    39   am
    31    39    41    1
    32    41    42    1
    33    42    43    1
    34    43    44    1
    35    44    45    1
    36    45    46    1
    37    46    47    1
    38    34    35    1
    39    35    36    1
    40    24    25   ar
    41    25    26    1
    42    25    27   ar
    43    27    21   ar
    44     6     1   ar
    45    35    30    1
    46    10     4    1
    47    47    43    1
    48    15    19    1
    49    18    20    1
    50     7    12    1
    51    39    40    1
@<TRIPOS>MOLECULE
*****
 47 51 0 0 0
SMALL
GASTEIGER

@<TRIPOS>ATOM
      1 C         144.8556  142.7915  161.8593 C.ar    1  UNL1        0.0528
      2 C         145.4092  141.8210  162.8602 C.ar    1  UNL1        0.0148
      3 C         144.6178  141.4753  164.0866 C.ar    1  UNL1        0.0027
      4 C         143.2728  142.0999  164.3121 C.ar    1  UNL1        0.0180
      5 C         142.7193  143.0704  163.3113 C.ar    1  UNL1        0.0519
      6 C         143.5107  143.4161  162.0849 C.ar    1  UNL1        0.0294
      7 N         141.3752  143.5234  163.7993 N.am    1  UNL1       -0.2803
      8 C         141.0980  142.8329  165.1018 C.2     1  UNL1        0.2496
      9 O         139.8645  142.9939  165.9401 O.2     1  UNL1       -0.2698
     10 C         142.2708  141.9531  165.4188 C.2     1  UNL1        0.0560
     11 C         142.4162  141.0799  166.6297 C.2     1  UNL1        0.0196
     12 H         140.7795  144.1618  163.3445 H       1  UNL1        0.1552
     13 C         146.0364  141.9266  156.8735 C.2     1  UNL1        0.2548
     14 O         145.0440  140.8025  156.8335 O.2     1  UNL1       -0.2696
     15 N         146.2374  142.7049  158.1400 N.am    1  UNL1       -0.2358
     16 C         145.4460  142.3591  159.3664 C.2     1  UNL1        0.3104
     17 O         144.4536  141.2350  159.3264 O.2     1  UNL1       -0.2521
     18 N         145.6470  143.1373  160.6329 N.am    1  UNL1       -0.2680
     19 H         146.8887  143.4426  158.1662 H       1  UNL1        0.1594
     20 H         146.2984  143.8751  160.6591 H       1  UNL1        0.1564
     21 C         148.4106  142.9641  153.1943 C.ar    1  UNL1        0.1410
     22 C         149.0619  142.2197  154.3220 C.ar    1  UNL1        0.0372
     23 C         148.2705  141.8739  155.5484 C.ar    1  UNL1        0.0099
     24 C         146.8278  142.2725  155.6471 C.ar    1  UNL1        0.0814
     25 C         146.1765  143.0168  154.5195 C.ar    1  UNL1        0.1475
     26 F         144.7338  143.4154  154.6182 F       1  UNL1       -0.2039
     27 C         146.9679  143.3627  153.2930 C.ar    1  UNL1        0.0666
     28 C         150.6947  143.4345  152.0489 C.3     1  UNL1        0.2525
     29 O         149.2020  143.3100  151.9679 O.3     1  UNL1       -0.4714
     30 C         141.3248  141.0357  167.6578 C.2     1  UNL1        0.0626
     31 N         141.1953  141.9424  168.8457 N.2     1  UNL1       -0.2538
     32 C         139.9618  141.5441  169.6006 C.2     1  UNL1        0.0597
     33 C         139.4508  142.1859  170.8563 C.3     1  UNL1        0.0519
     34 C         139.3290  140.3911  168.8792 C.2     1  UNL1        0.0499
     35 C         140.1714  140.0769  167.6785 C.3     1  UNL1        0.0681
     36 C         139.9068  138.9941  166.6747 C.3     1  UNL1        0.0112
     37 C         138.0741  139.6776  169.2869 C.2     1  UNL1        0.2434
     38 O         137.3819  138.7650  168.3183 O.2     1  UNL1       -0.2704
     39 N         137.5115  139.8766  170.6630 N.am    1  UNL1       -0.2997
     40 H         137.9658  140.4755  171.2987 H       1  UNL1        0.1498
     41 C         136.2566  139.1630  171.0706 C.3     1  UNL1        0.1070
     42 C         136.2600  137.6715  171.2300 C.3     1  UNL1        0.0936
     43 N         135.8544  137.0559  172.5363 N.3     1  UNL1       -0.2712
     44 C         136.6585  136.0736  173.3354 C.3     1  UNL1        0.0722
     45 C         135.8746  135.7250  174.5658 C.3     1  UNL1        0.0188
     46 C         134.5859  136.4918  174.5271 C.3     1  UNL1        0.0188
     47 C         134.5735  137.3144  173.2728 C.3     1  UNL1        0.0722
@<TRIPOS>BOND
     1    28    29    1
     2    29    21    1
     3    21    22   ar
     4    22    23   ar
     5    23    24   ar
     6    24    13    1
     7    13    14    2
     8    13    15   am
     9    15    16   am
    10    16    17    2
    11    16    18   am
    12    18     1    1
    13     1     2   ar
    14     2     3   ar
    15     3     4   ar
    16     4     5   ar
    17     5     6   ar
    18     5     7    1
    19     7     8   am
    20     8     9    2
    21     8    10    1
    22    10    11    2
    23    11    30    1
    24    30    31    2
    25    31    32    1
    26    32    33    1
    27    32    34    2
    28    34    37    1
    29    37    38    2
    30    37    39   am
    31    39    41    1
    32    41    42    1
    33    42    43    1
    34    43    44    1
    35    44    45    1
    36    45    46    1
    37    46    47    1
    38    34    35    1
    39    35    36    1
    40    24    25   ar
    41    25    26    1
    42    25    27   ar
    43    27    21   ar
    44     6     1   ar
    45    35    30    1
    46    10     4    1
    47    47    43    1
    48    15    19    1
    49    18    20    1
    50     7    12    1
    51    39    40    1
@<TRIPOS>MOLECULE
*****
 47 51 0 0 0
SMALL
GASTEIGER

@<TRIPOS>ATOM
      1 C         139.8060  139.5618  156.3213 C.ar    1  UNL1        0.0528
      2 C         140.9601  140.3711  156.8339 C.ar    1  UNL1        0.0148
      3 C         140.9485  141.8647  156.6961 C.ar    1  UNL1        0.0027
      4 C         139.7828  142.5489  156.0458 C.ar    1  UNL1        0.0180
      5 C         138.6286  141.7395  155.5332 C.ar    1  UNL1        0.0519
      6 C         138.6402  140.2459  155.6710 C.ar    1  UNL1        0.0294
      7 N         137.6256  142.6852  154.9421 N.am    1  UNL1       -0.2803
      8 C         138.1598  144.0792  155.0893 C.2     1  UNL1        0.2496
      9 O         137.4800  145.3365  154.6343 O.2     1  UNL1       -0.2698
     10 C         139.4930  143.9949  155.7715 C.2     1  UNL1        0.0560
     11 C         140.3806  145.1533  156.1184 C.2     1  UNL1        0.0196
     12 H         136.7673  142.4350  154.5298 H       1  UNL1        0.1552
     13 C         142.1289  134.9854  155.5080 C.2     1  UNL1        0.2548
     14 O         143.2673  135.6845  154.8258 O.2     1  UNL1       -0.2696
     15 N         140.9790  135.7799  156.0524 N.am    1  UNL1       -0.2358
     16 C         140.9675  137.2736  155.9146 C.2     1  UNL1        0.3104
     17 O         142.1059  137.9727  155.2325 O.2     1  UNL1       -0.2521
     18 N         139.8175  138.0681  156.4590 N.am    1  UNL1       -0.2680
     19 H         140.2318  135.3211  156.5001 H       1  UNL1        0.1594
     20 H         139.0704  137.6092  156.9068 H       1  UNL1        0.1564
     21 C         142.1634  130.5046  155.9212 C.ar    1  UNL1        0.1410
     22 C         141.2236  131.1613  154.9540 C.ar    1  UNL1        0.0372
     23 C         141.2121  132.6549  154.8163 C.ar    1  UNL1        0.0099
     24 C         142.1404  133.4918  155.6457 C.ar    1  UNL1        0.0814
     25 C         143.0802  132.8350  156.6129 C.ar    1  UNL1        0.1475
     26 F         144.0085  133.6719  157.4424 F       1  UNL1       -0.2039
     27 C         143.0917  131.3414  156.7507 C.ar    1  UNL1        0.0666
     28 C         142.9967  128.1775  155.1208 C.3     1  UNL1        0.2525
     29 O         142.1749  129.0110  156.0590 O.3     1  UNL1       -0.4714
     30 C         139.9558  146.5514  155.7799 C.2     1  UNL1        0.0626
     31 N         139.0954  147.4411  156.6276 N.2     1  UNL1       -0.2538
     32 C         138.9245  148.7449  155.9060 C.2     1  UNL1        0.0597
     33 C         138.1372  149.9253  156.3925 C.3     1  UNL1        0.0519
     34 C         139.6792  148.6612  154.6123 C.2     1  UNL1        0.0499
     35 C         140.3165  147.3055  154.5344 C.3     1  UNL1        0.0681
     36 C         141.1656  146.7937  153.4087 C.3     1  UNL1        0.0112
     37 C         139.7791  149.7430  153.5781 C.2     1  UNL1        0.2434
     38 O         139.5417  149.4224  152.1321 O.2     1  UNL1       -0.2704
     39 N         140.1163  151.1454  153.9898 N.am    1  UNL1       -0.2997
     40 H         140.2721  151.3558  154.9388 H       1  UNL1        0.1498
     41 C         140.2161  152.2272  152.9555 C.3     1  UNL1        0.1070
     42 C         138.9794  152.9386  152.4925 C.3     1  UNL1        0.0936
     43 N         138.2928  153.9165  153.3993 N.3     1  UNL1       -0.2712
     44 C         137.5274  155.1321  152.9672 C.3     1  UNL1        0.0722
     45 C         137.0125  155.8174  154.1982 C.3     1  UNL1        0.0188
     46 C         137.4597  155.0254  155.3910 C.3     1  UNL1        0.0188
     47 C         138.2509  153.8505  154.8973 C.3     1  UNL1        0.0722
@<TRIPOS>BOND
     1    28    29    1
     2    29    21    1
     3    21    22   ar
     4    22    23   ar
     5    23    24   ar
     6    24    13    1
     7    13    14    2
     8    13    15   am
     9    15    16   am
    10    16    17    2
    11    16    18   am
    12    18     1    1
    13     1     2   ar
    14     2     3   ar
    15     3     4   ar
    16     4     5   ar
    17     5     6   ar
    18     5     7    1
    19     7     8   am
    20     8     9    2
    21     8    10    1
    22    10    11    2
    23    11    30    1
    24    30    31    2
    25    31    32    1
    26    32    33    1
    27    32    34    2
    28    34    37    1
    29    37    38    2
    30    37    39   am
    31    39    41    1
    32    41    42    1
    33    42    43    1
    34    43    44    1
    35    44    45    1
    36    45    46    1
    37    46    47    1
    38    34    35    1
    39    35    36    1
    40    24    25   ar
    41    25    26    1
    42    25    27   ar
    43    27    21   ar
    44     6     1   ar
    45    35    30    1
    46    10     4    1
    47    47    43    1
    48    15    19    1
    49    18    20    1
    50     7    12    1
    51    39    40    1
@<TRIPOS>MOLECULE
*****
 47 51 0 0 0
SMALL
GASTEIGER

@<TRIPOS>ATOM
      1 C         141.9760  139.5175  161.6895 C.ar    1  UNL1        0.0528
      2 C         143.2449  138.8033  161.3294 C.ar    1  UNL1        0.0148
      3 C         143.3349  138.0365  160.0433 C.ar    1  UNL1        0.0027
      4 C         142.1559  137.9840  159.1174 C.ar    1  UNL1        0.0180
      5 C         140.8870  138.6982  159.4775 C.ar    1  UNL1        0.0519
      6 C         140.7970  139.4649  160.7636 C.ar    1  UNL1        0.0294
      7 N         139.8970  138.4689  158.3742 N.am    1  UNL1       -0.2803
      8 C         140.5540  137.6130  157.3322 C.2     1  UNL1        0.2496
      9 O         139.9253  137.1399  156.0551 O.2     1  UNL1       -0.2698
     10 C         141.9501  137.3133  157.7915 C.2     1  UNL1        0.0560
     11 C         142.9627  136.4878  157.0544 C.2     1  UNL1        0.0196
     12 H         138.9774  138.8188  158.3400 H       1  UNL1        0.1552
     13 C         140.0012  140.0840  166.4623 C.2     1  UNL1        0.2548
     14 O         139.1937  138.8336  166.2766 O.2     1  UNL1       -0.2696
     15 N         140.8986  140.5676  165.3619 N.am    1  UNL1       -0.2358
     16 C         140.9886  139.8008  164.0759 C.2     1  UNL1        0.3104
     17 O         140.1811  138.5504  163.8902 O.2     1  UNL1       -0.2521
     18 N         141.8860  140.2844  162.9755 N.am    1  UNL1       -0.2680
     19 H         141.4285  141.3883  165.4838 H       1  UNL1        0.1594
     20 H         142.4159  141.1051  163.0974 H       1  UNL1        0.1564
     21 C         139.7312  142.3846  170.3203 C.ar    1  UNL1        0.1410
     22 C         139.2435  140.9675  170.2564 C.ar    1  UNL1        0.0372
     23 C         139.3334  140.2007  168.9704 C.ar    1  UNL1        0.0099
     24 C         139.9112  140.8509  167.7482 C.ar    1  UNL1        0.0814
     25 C         140.3989  142.2679  167.8122 C.ar    1  UNL1        0.1475
     26 F         140.9766  142.9181  166.5902 F       1  UNL1       -0.2039
     27 C         140.3089  143.0348  169.0983 C.ar    1  UNL1        0.0666
     28 C         138.7112  144.3231  171.7174 C.3     1  UNL1        0.2525
     29 O         139.6412  143.1514  171.6063 O.3     1  UNL1       -0.4714
     30 C         142.6116  135.8766  155.7304 C.2     1  UNL1        0.0626
     31 N         142.3121  136.6251  154.4654 N.2     1  UNL1       -0.2538
     32 C         142.0137  135.6207  153.3920 C.2     1  UNL1        0.0597
     33 C         141.6621  135.9310  151.9673 C.3     1  UNL1        0.0519
     34 C         142.1287  134.2514  153.9936 C.2     1  UNL1        0.0499
     35 C         142.4982  134.4096  155.4387 C.3     1  UNL1        0.0681
     36 C         142.7161  133.2962  156.4201 C.3     1  UNL1        0.0112
     37 C         141.9122  132.9521  153.2761 C.2     1  UNL1        0.2434
     38 O         140.6281  132.7063  152.5408 O.2     1  UNL1       -0.2704
     39 N         142.9798  131.8985  153.2939 N.am    1  UNL1       -0.2997
     40 H         143.8226  132.0598  153.7765 H       1  UNL1        0.1498
     41 C         142.7632  130.5992  152.5764 C.3     1  UNL1        0.1070
     42 C         142.7456  129.3115  153.3455 C.3     1  UNL1        0.0936
     43 N         143.2245  129.2802  154.7667 N.3     1  UNL1       -0.2712
     44 C         142.3829  129.5155  155.9860 C.3     1  UNL1        0.0722
     45 C         143.2672  129.3888  157.1910 C.3     1  UNL1        0.0188
     46 C         144.6552  129.0751  156.7165 C.3     1  UNL1        0.0188
     47 C         144.6288  129.0080  155.2181 C.3     1  UNL1        0.0722
@<TRIPOS>BOND
     1    28    29    1
     2    29    21    1
     3    21    22   ar
     4    22    23   ar
     5    23    24   ar
     6    24    13    1
     7    13    14    2
     8    13    15   am
     9    15    16   am
    10    16    17    2
    11    16    18   am
    12    18     1    1
    13     1     2   ar
    14     2     3   ar
    15     3     4   ar
    16     4     5   ar
    17     5     6   ar
    18     5     7    1
    19     7     8   am
    20     8     9    2
    21     8    10    1
    22    10    11    2
    23    11    30    1
    24    30    31    2
    25    31    32    1
    26    32    33    1
    27    32    34    2
    28    34    37    1
    29    37    38    2
    30    37    39   am
    31    39    41    1
    32    41    42    1
    33    42    43    1
    34    43    44    1
    35    44    45    1
    36    45    46    1
    37    46    47    1
    38    34    35    1
    39    35    36    1
    40    24    25   ar
    41    25    26    1
    42    25    27   ar
    43    27    21   ar
    44     6     1   ar
    45    35    30    1
    46    10     4    1
    47    47    43    1
    48    15    19    1
    49    18    20    1
    50     7    12    1
    51    39    40    1
@<TRIPOS>MOLECULE
*****
 47 51 0 0 0
SMALL
GASTEIGER

@<TRIPOS>ATOM
      1 C         140.7381  138.1728  155.9904 C.ar    1  UNL1        0.0528
      2 C         141.9254  138.9807  156.4236 C.ar    1  UNL1        0.0148
      3 C         141.9911  140.4456  156.1082 C.ar    1  UNL1        0.0027
      4 C         140.8695  141.1028  155.3598 C.ar    1  UNL1        0.0180
      5 C         139.6822  140.2949  154.9266 C.ar    1  UNL1        0.0519
      6 C         139.6165  138.8300  155.2419 C.ar    1  UNL1        0.0294
      7 N         138.7356  141.2106  154.2086 N.am    1  UNL1       -0.2803
      8 C         139.3379  142.5843  154.1980 C.2     1  UNL1        0.2496
      9 O         138.7283  143.8096  153.5838 O.2     1  UNL1       -0.2698
     10 C         140.6567  142.5177  154.9095 C.2     1  UNL1        0.0560
     11 C         141.5976  143.6647  155.1316 C.2     1  UNL1        0.0196
     12 H         137.8709  140.9548  153.8137 H       1  UNL1        0.1552
     13 C         141.5033  133.2287  154.5866 C.2     1  UNL1        0.2548
     14 O         142.0175  133.6867  153.2540 O.2     1  UNL1       -0.2696
     15 N         141.0549  134.2357  155.6039 N.am    1  UNL1       -0.2358
     16 C         141.1207  135.7008  155.2885 C.2     1  UNL1        0.3104
     17 O         141.6349  136.1588  153.9559 O.2     1  UNL1       -0.2521
     18 N         140.6723  136.7078  156.3058 N.am    1  UNL1       -0.2680
     19 H         140.7175  133.9351  156.4785 H       1  UNL1        0.1594
     20 H         140.3348  136.4072  157.1804 H       1  UNL1        0.1564
     21 C         141.3059  128.8338  155.5327 C.ar    1  UNL1        0.1410
     22 C         140.1467  129.5094  154.8620 C.ar    1  UNL1        0.0372
     23 C         140.2125  130.9743  154.5467 C.ar    1  UNL1        0.0099
     24 C         141.4375  131.7638  154.9020 C.ar    1  UNL1        0.0814
     25 C         142.5967  131.0881  155.5726 C.ar    1  UNL1        0.1475
     26 F         143.8217  131.8775  155.9279 F       1  UNL1       -0.2039
     27 C         142.5309  129.6231  155.8880 C.ar    1  UNL1        0.0666
     28 C         139.9098  126.6854  155.9635 C.3     1  UNL1        0.2525
     29 O         141.2401  127.3688  155.8481 O.3     1  UNL1       -0.4714
     30 C         141.2482  145.0311  154.6209 C.2     1  UNL1        0.0626
     31 N         141.5169  145.5515  153.2399 N.2     1  UNL1       -0.2538
     32 C         141.0036  146.9590  153.1670 C.2     1  UNL1        0.0597
     33 C         141.0653  147.8590  151.9686 C.3     1  UNL1        0.0519
     34 C         140.4176  147.3085  154.5028 C.2     1  UNL1        0.0499
     35 C         140.5688  146.1170  155.4014 C.3     1  UNL1        0.0681
     36 C         140.1194  146.0271  156.8297 C.3     1  UNL1        0.0112
     37 C         139.7905  148.6194  154.8749 C.2     1  UNL1        0.2434
     38 O         138.4194  148.6491  155.4825 O.2     1  UNL1       -0.2704
     39 N         140.5344  149.9004  154.6393 N.am    1  UNL1       -0.2997
     40 H         141.4343  149.8809  154.2405 H       1  UNL1        0.1498
     41 C         139.9072  151.2112  155.0114 C.3     1  UNL1        0.1070
     42 C         140.2306  152.4472  154.2255 C.3     1  UNL1        0.0936
     43 N         141.6571  152.8826  154.0657 N.3     1  UNL1       -0.2712
     44 C         142.1208  154.1975  153.5122 C.3     1  UNL1        0.0722
     45 C         143.6206  154.2072  153.5357 C.3     1  UNL1        0.0188
     46 C         144.0838  152.8984  154.1038 C.3     1  UNL1        0.0188
     47 C         142.8702  152.0798  154.4314 C.3     1  UNL1        0.0722
@<TRIPOS>BOND
     1    28    29    1
     2    29    21    1
     3    21    22   ar
     4    22    23   ar
     5    23    24   ar
     6    24    13    1
     7    13    14    2
     8    13    15   am
     9    15    16   am
    10    16    17    2
    11    16    18   am
    12    18     1    1
    13     1     2   ar
    14     2     3   ar
    15     3     4   ar
    16     4     5   ar
    17     5     6   ar
    18     5     7    1
    19     7     8   am
    20     8     9    2
    21     8    10    1
    22    10    11    2
    23    11    30    1
    24    30    31    2
    25    31    32    1
    26    32    33    1
    27    32    34    2
    28    34    37    1
    29    37    38    2
    30    37    39   am
    31    39    41    1
    32    41    42    1
    33    42    43    1
    34    43    44    1
    35    44    45    1
    36    45    46    1
    37    46    47    1
    38    34    35    1
    39    35    36    1
    40    24    25   ar
    41    25    26    1
    42    25    27   ar
    43    27    21   ar
    44     6     1   ar
    45    35    30    1
    46    10     4    1
    47    47    43    1
    48    15    19    1
    49    18    20    1
    50     7    12    1
    51    39    40    1
@<TRIPOS>MOLECULE
*****
 47 51 0 0 0
SMALL
GASTEIGER

@<TRIPOS>ATOM
      1 C         138.7780  142.5108  161.7868 C.ar    1  UNL1        0.0528
      2 C         138.3654  141.7504  160.5615 C.ar    1  UNL1        0.0148
      3 C         138.9632  142.0934  159.2293 C.ar    1  UNL1        0.0027
      4 C         139.9737  143.1968  159.1224 C.ar    1  UNL1        0.0180
      5 C         140.3863  143.9572  160.3477 C.ar    1  UNL1        0.0519
      6 C         139.7884  143.6142  161.6799 C.ar    1  UNL1        0.0294
      7 N         141.3969  144.9864  159.9361 N.am    1  UNL1       -0.2803
      8 C         141.6089  144.8621  158.4564 C.2     1  UNL1        0.2496
      9 O         142.5375  145.6973  157.6255 O.2     1  UNL1       -0.2698
     10 C         140.7293  143.7561  157.9534 C.2     1  UNL1        0.0560
     11 C         140.6238  143.2909  156.5313 C.2     1  UNL1        0.0196
     12 H         141.8427  145.6305  160.5325 H       1  UNL1        0.1552
     13 C         138.7731  139.6258  166.1085 C.2     1  UNL1        0.2548
     14 O         139.9664  138.8693  165.6049 O.2     1  UNL1       -0.2696
     15 N         138.1776  140.7253  165.2800 N.am    1  UNL1       -0.2358
     16 C         138.7755  141.0683  163.9477 C.2     1  UNL1        0.3104
     17 O         139.9688  140.3118  163.4440 O.2     1  UNL1       -0.2521
     18 N         138.1801  142.1678  163.1191 N.am    1  UNL1       -0.2680
     19 H         137.3944  141.2218  165.6106 H       1  UNL1        0.1594
     20 H         137.3969  142.6643  163.4497 H       1  UNL1        0.1564
     21 C         136.9794  138.5969  170.1053 C.ar    1  UNL1        0.1410
     22 C         136.5140  137.8862  168.8690 C.ar    1  UNL1        0.0372
     23 C         137.1119  138.2291  167.5368 C.ar    1  UNL1        0.0099
     24 C         138.1752  139.2828  167.4408 C.ar    1  UNL1        0.0814
     25 C         138.6406  139.9935  168.6770 C.ar    1  UNL1        0.1475
     26 F         139.7038  141.0472  168.5810 F       1  UNL1       -0.2039
     27 C         138.0426  139.6505  170.0093 C.ar    1  UNL1        0.0666
     28 C         136.9827  137.1607  172.2704 C.3     1  UNL1        0.2525
     29 O         136.3815  138.2539  171.4375 O.3     1  UNL1       -0.4714
     30 C         141.4463  143.9497  155.4638 C.2     1  UNL1        0.0626
     31 N         141.0225  145.1122  154.6157 N.2     1  UNL1       -0.2538
     32 C         142.1512  145.4426  153.6847 C.2     1  UNL1        0.0597
     33 C         142.1575  146.5387  152.6609 C.3     1  UNL1        0.0519
     34 C         143.2727  144.4843  153.9573 C.2     1  UNL1        0.0499
     35 C         142.8370  143.5617  155.0568 C.3     1  UNL1        0.0681
     36 C         143.6493  142.4467  155.6460 C.3     1  UNL1        0.0112
     37 C         144.5972  144.4540  153.2540 C.2     1  UNL1        0.2434
     38 O         144.7458  143.6976  151.9672 O.2     1  UNL1       -0.2704
     39 N         145.7730  145.1799  153.8374 N.am    1  UNL1       -0.2997
     40 H         145.6755  145.6763  154.6820 H       1  UNL1        0.1498
     41 C         147.0975  145.1495  153.1340 C.3     1  UNL1        0.1070
     42 C         147.7024  143.8375  152.7304 C.3     1  UNL1        0.0936
     43 N         148.4972  143.0413  153.7224 N.3     1  UNL1       -0.2712
     44 C         149.9337  142.6342  153.5777 C.3     1  UNL1        0.0722
     45 C         150.3195  141.8536  154.7991 C.3     1  UNL1        0.0188
     46 C         149.1214  141.7782  155.6987 C.3     1  UNL1        0.0188
     47 C         147.9952  142.5122  155.0331 C.3     1  UNL1        0.0722
@<TRIPOS>BOND
     1    28    29    1
     2    29    21    1
     3    21    22   ar
     4    22    23   ar
     5    23    24   ar
     6    24    13    1
     7    13    14    2
     8    13    15   am
     9    15    16   am
    10    16    17    2
    11    16    18   am
    12    18     1    1
    13     1     2   ar
    14     2     3   ar
    15     3     4   ar
    16     4     5   ar
    17     5     6   ar
    18     5     7    1
    19     7     8   am
    20     8     9    2
    21     8    10    1
    22    10    11    2
    23    11    30    1
    24    30    31    2
    25    31    32    1
    26    32    33    1
    27    32    34    2
    28    34    37    1
    29    37    38    2
    30    37    39   am
    31    39    41    1
    32    41    42    1
    33    42    43    1
    34    43    44    1
    35    44    45    1
    36    45    46    1
    37    46    47    1
    38    34    35    1
    39    35    36    1
    40    24    25   ar
    41    25    26    1
    42    25    27   ar
    43    27    21   ar
    44     6     1   ar
    45    35    30    1
    46    10     4    1
    47    47    43    1
    48    15    19    1
    49    18    20    1
    50     7    12    1
    51    39    40    1
@<TRIPOS>MOLECULE
*****
 47 51 0 0 0
SMALL
GASTEIGER

@<TRIPOS>ATOM
      1 C         142.6903  138.2365  154.2691 C.ar    1  UNL1        0.0528
      2 C         143.8190  139.2004  154.4853 C.ar    1  UNL1        0.0148
      3 C         143.5591  140.6775  154.4601 C.ar    1  UNL1        0.0027
      4 C         142.1704  141.1906  154.2189 C.ar    1  UNL1        0.0180
      5 C         141.0416  140.2267  154.0027 C.ar    1  UNL1        0.0519
      6 C         141.3016  138.7497  154.0278 C.ar    1  UNL1        0.0294
      7 N         139.7876  141.0217  153.7897 N.am    1  UNL1       -0.2803
      8 C         140.1413  142.4770  153.8741 C.2     1  UNL1        0.2496
      9 O         139.1895  143.6261  153.7203 O.2     1  UNL1       -0.2698
     10 C         141.6140  142.5814  154.1394 C.2     1  UNL1        0.0560
     11 C         142.3934  143.8532  154.2975 C.2     1  UNL1        0.0196
     12 H         138.8900  140.6531  153.6236 H       1  UNL1        0.1552
     13 C         143.4765  133.8504  156.9420 C.2     1  UNL1        0.2548
     14 O         143.3498  134.6116  158.2283 O.2     1  UNL1       -0.2696
     15 N         143.3433  134.5663  155.6307 N.am    1  UNL1       -0.2358
     16 C         143.0834  136.0435  155.6056 C.2     1  UNL1        0.3104
     17 O         142.9567  136.8046  156.8919 O.2     1  UNL1       -0.2521
     18 N         142.9502  136.7594  154.2942 N.am    1  UNL1       -0.2680
     19 H         143.4264  134.0667  154.7865 H       1  UNL1        0.1594
     20 H         143.0333  136.2598  153.4500 H       1  UNL1        0.1564
     21 C         144.2561  129.4191  157.0172 C.ar    1  UNL1        0.1410
     22 C         143.1168  129.9666  156.2095 C.ar    1  UNL1        0.0372
     23 C         142.8569  131.4437  156.1845 C.ar    1  UNL1        0.0099
     24 C         143.7363  132.3734  156.9671 C.ar    1  UNL1        0.0814
     25 C         144.8756  131.8259  157.7748 C.ar    1  UNL1        0.1475
     26 F         145.7550  132.7555  158.5574 F       1  UNL1       -0.2039
     27 C         145.1355  130.3487  157.7998 C.ar    1  UNL1        0.0666
     28 C         145.2874  127.2972  155.9290 C.3     1  UNL1        0.2525
     29 O         144.5160  127.9421  157.0423 O.3     1  UNL1       -0.4714
     30 C         141.6971  145.1776  154.1920 C.2     1  UNL1        0.0626
     31 N         141.6762  146.0692  152.9857 N.2     1  UNL1       -0.2538
     32 C         140.8656  147.2855  153.3224 C.2     1  UNL1        0.0597
     33 C         140.5844  148.4390  152.4058 C.3     1  UNL1        0.0519
     34 C         140.3855  147.1458  154.7367 C.2     1  UNL1        0.0499
     35 C         140.8994  145.8431  155.2740 C.3     1  UNL1        0.0681
     36 C         140.6580  145.3009  156.6517 C.3     1  UNL1        0.0112
     37 C         139.5400  148.1351  155.4826 C.2     1  UNL1        0.2434
     38 O         138.8945  147.7432  156.7787 O.2     1  UNL1       -0.2704
     39 N         139.3399  149.5161  154.9325 N.am    1  UNL1       -0.2997
     40 H         139.7636  149.7733  154.0819 H       1  UNL1        0.1498
     41 C         138.4944  150.5053  155.6786 C.3     1  UNL1        0.1070
     42 C         138.9248  151.9391  155.7732 C.3     1  UNL1        0.0936
     43 N         138.4693  152.9286  154.7420 N.3     1  UNL1       -0.2712
     44 C         138.3314  152.6687  153.2711 C.3     1  UNL1        0.0722
     45 C         137.8486  153.9311  152.6206 C.3     1  UNL1        0.0188
     46 C         137.6882  154.9713  153.6894 C.3     1  UNL1        0.0188
     47 C         138.0719  154.3517  155.0005 C.3     1  UNL1        0.0722
@<TRIPOS>BOND
     1    28    29    1
     2    29    21    1
     3    21    22   ar
     4    22    23   ar
     5    23    24   ar
     6    24    13    1
     7    13    14    2
     8    13    15   am
     9    15    16   am
    10    16    17    2
    11    16    18   am
    12    18     1    1
    13     1     2   ar
    14     2     3   ar
    15     3     4   ar
    16     4     5   ar
    17     5     6   ar
    18     5     7    1
    19     7     8   am
    20     8     9    2
    21     8    10    1
    22    10    11    2
    23    11    30    1
    24    30    31    2
    25    31    32    1
    26    32    33    1
    27    32    34    2
    28    34    37    1
    29    37    38    2
    30    37    39   am
    31    39    41    1
    32    41    42    1
    33    42    43    1
    34    43    44    1
    35    44    45    1
    36    45    46    1
    37    46    47    1
    38    34    35    1
    39    35    36    1
    40    24    25   ar
    41    25    26    1
    42    25    27   ar
    43    27    21   ar
    44     6     1   ar
    45    35    30    1
    46    10     4    1
    47    47    43    1
    48    15    19    1
    49    18    20    1
    50     7    12    1
    51    39    40    1
