@<TRIPOS>MOLECULE
*****
 30 33 0 0 0
SMALL
GASTEIGER

@<TRIPOS>ATOM
      1 C         139.5223  139.6018  167.3851 C.ar    1  UNL1        0.1317
      2 C         138.2483  138.9773  166.8987 C.ar    1  UNL1        0.0548
      3 C         138.0793  138.6540  165.4437 C.ar    1  UNL1        0.1049
      4 N         139.1844  138.9553  164.4752 N.ar    1  UNL1       -0.2105
      5 N         139.3047  138.7502  162.9941 N.ar    1  UNL1       -0.1621
      6 C         140.6532  139.2480  162.5653 C.ar    1  UNL1        0.1236
      7 C         141.3662  139.7607  163.7813 C.ar    1  UNL1        0.0569
      8 C         140.4585  139.5798  164.9617 C.ar    1  UNL1        0.1666
      9 N         140.6274  139.9030  166.4167 N.ar    1  UNL1       -0.2120
     10 C         142.7450  140.3507  163.8117 C.ar    1  UNL1        0.0075
     11 C         143.9145  139.5036  164.2172 C.ar    1  UNL1        0.0003
     12 C         145.2933  140.0936  164.2476 C.ar    1  UNL1        0.0031
     13 C         145.5025  141.5307  163.8724 C.ar    1  UNL1        0.0372
     14 C         144.3330  142.3779  163.4669 C.ar    1  UNL1        0.1468
     15 C         142.9542  141.7879  163.4365 C.ar    1  UNL1        0.0373
     16 O         144.5422  143.8151  163.0916 O.3     1  UNL1       -0.4045
     17 C         143.5715  144.8604  163.5557 C.3     1  UNL1        0.5753
     18 F         142.6009  145.9056  164.0199 F       1  UNL1       -0.1328
     19 F         142.8849  144.8145  162.2229 F       1  UNL1       -0.1328
     20 F         144.2582  144.9062  164.8886 F       1  UNL1       -0.1328
     21 N         139.6913  139.9250  168.8402 N.pl3   1  UNL1       -0.3196
     22 H         139.0680  139.5497  169.5034 H       1  UNL1        0.1481
     23 O         144.1658  143.5053  170.6179 O.3     1  UNL1       -0.3845
     24 C         143.0472  142.6102  170.1735 C.3     1  UNL1        0.1106
     25 C         141.6901  143.1865  169.8974 C.3     1  UNL1        0.0309
     26 C         140.5715  142.2914  169.4529 C.3     1  UNL1        0.0220
     27 C         140.8099  140.8201  169.2846 C.3     1  UNL1        0.0705
     28 C         142.1671  140.2438  169.5607 C.3     1  UNL1        0.0220
     29 C         143.2857  141.1389  170.0051 C.3     1  UNL1        0.0309
     30 H         143.8453  144.4189  170.6758 H       1  UNL1        0.2103
@<TRIPOS>BOND
     1    24    23    1
     2    24    25    1
     3    25    26    1
     4    26    27    1
     5    27    21    1
     6    21     1    1
     7     1     2   ar
     8     2     3   ar
     9     3     4   ar
    10     4     5   ar
    11     5     6   ar
    12     6     7   ar
    13     7    10    1
    14    10    11   ar
    15    11    12   ar
    16    12    13   ar
    17    13    14   ar
    18    14    16    1
    19    16    17    1
    20    17    18    1
    21    17    19    1
    22    17    20    1
    23    14    15   ar
    24     7     8   ar
    25     8     9   ar
    26    27    28    1
    27    28    29    1
    28    29    24    1
    29     9     1   ar
    30     8     4   ar
    31    15    10   ar
    32    23    30    1
    33    21    22    1
@<TRIPOS>MOLECULE
*****
 30 33 0 0 0
SMALL
GASTEIGER

@<TRIPOS>ATOM
      1 C         143.0801  142.4194  167.1121 C.ar    1  UNL1        0.1317
      2 C         143.2578  142.1718  168.5808 C.ar    1  UNL1        0.0548
      3 C         142.2615  141.3339  169.3259 C.ar    1  UNL1        0.1049
      4 N         141.0876  140.7436  168.6024 N.ar    1  UNL1       -0.2105
      5 N         139.9508  139.8829  169.0682 N.ar    1  UNL1       -0.1621
      6 C         139.0706  139.5985  167.8874 C.ar    1  UNL1        0.1236
      7 C         139.6634  140.2835  166.6918 C.ar    1  UNL1        0.0569
      8 C         140.9100  140.9912  167.1337 C.ar    1  UNL1        0.1666
      9 N         141.9062  141.8291  166.3886 N.ar    1  UNL1       -0.2120
     10 C         139.1073  140.2642  165.2989 C.ar    1  UNL1        0.0075
     11 C         139.1685  139.0062  164.4842 C.ar    1  UNL1        0.0003
     12 C         138.6124  138.9869  163.0912 C.ar    1  UNL1        0.0031
     13 C         137.9951  140.2256  162.5129 C.ar    1  UNL1        0.0372
     14 C         137.9339  141.4836  163.3275 C.ar    1  UNL1        0.1468
     15 C         138.4900  141.5029  164.7205 C.ar    1  UNL1        0.0373
     16 O         137.3165  142.7224  162.7492 O.3     1  UNL1       -0.4045
     17 C         138.0554  144.0264  162.8082 C.3     1  UNL1        0.5753
     18 F         138.7943  145.3305  162.8674 F       1  UNL1       -0.1328
     19 F         138.7907  143.6666  161.5513 F       1  UNL1       -0.1328
     20 F         137.3199  144.3861  164.0652 F       1  UNL1       -0.1328
     21 N         144.0765  143.2573  166.3668 N.pl3   1  UNL1       -0.3196
     22 H         144.6094  143.9317  166.8468 H       1  UNL1        0.1481
     23 O         144.8134  142.4989  160.4608 O.3     1  UNL1       -0.3845
     24 C         144.6292  142.6885  161.9373 C.3     1  UNL1        0.1106
     25 C         145.1849  141.6796  162.8981 C.3     1  UNL1        0.0309
     26 C         145.0007  141.8692  164.3746 C.3     1  UNL1        0.0220
     27 C         144.2607  143.0677  164.8903 C.3     1  UNL1        0.0705
     28 C         143.7049  144.0767  163.9294 C.3     1  UNL1        0.0220
     29 C         143.8891  143.8870  162.4530 C.3     1  UNL1        0.0309
     30 H         145.3092  141.6810  160.2992 H       1  UNL1        0.2103
@<TRIPOS>BOND
     1    24    23    1
     2    24    25    1
     3    25    26    1
     4    26    27    1
     5    27    21    1
     6    21     1    1
     7     1     2   ar
     8     2     3   ar
     9     3     4   ar
    10     4     5   ar
    11     5     6   ar
    12     6     7   ar
    13     7    10    1
    14    10    11   ar
    15    11    12   ar
    16    12    13   ar
    17    13    14   ar
    18    14    16    1
    19    16    17    1
    20    17    18    1
    21    17    19    1
    22    17    20    1
    23    14    15   ar
    24     7     8   ar
    25     8     9   ar
    26    27    28    1
    27    28    29    1
    28    29    24    1
    29     9     1   ar
    30     8     4   ar
    31    15    10   ar
    32    23    30    1
    33    21    22    1
@<TRIPOS>MOLECULE
*****
 30 33 0 0 0
SMALL
GASTEIGER

@<TRIPOS>ATOM
      1 C         142.0967  141.5982  167.0710 C.ar    1  UNL1        0.1317
      2 C         141.9532  141.0746  168.4692 C.ar    1  UNL1        0.0548
      3 C         140.7831  140.2078  168.8290 C.ar    1  UNL1        0.1049
      4 N         139.7565  139.8647  167.7905 N.ar    1  UNL1       -0.2105
      5 N         138.5059  139.0384  167.8500 N.ar    1  UNL1       -0.1621
      6 C         137.8766  139.0514  166.4885 C.ar    1  UNL1        0.1236
      7 C         138.7382  139.8857  165.5876 C.ar    1  UNL1        0.0569
      8 C         139.9000  140.3883  166.3923 C.ar    1  UNL1        0.1666
      9 N         141.0701  141.2551  166.0325 N.ar    1  UNL1       -0.2120
     10 C         138.4828  140.1679  164.1367 C.ar    1  UNL1        0.0075
     11 C         138.3774  139.0348  163.1595 C.ar    1  UNL1        0.0003
     12 C         138.1220  139.3170  161.7086 C.ar    1  UNL1        0.0031
     13 C         137.9720  140.7322  161.2348 C.ar    1  UNL1        0.0372
     14 C         138.0774  141.8653  162.2120 C.ar    1  UNL1        0.1468
     15 C         138.3328  141.5832  163.6629 C.ar    1  UNL1        0.0373
     16 O         137.9274  143.2807  161.7383 O.3     1  UNL1       -0.4045
     17 C         138.5697  144.3997  162.5032 C.3     1  UNL1        0.5753
     18 F         139.2122  145.5188  163.2682 F       1  UNL1       -0.1328
     19 F         137.2588  144.6972  163.1689 F       1  UNL1       -0.1328
     20 F         139.8807  144.1022  161.8375 F       1  UNL1       -0.1328
     21 N         143.2668  142.4651  166.7111 N.pl3   1  UNL1       -0.3196
     22 H         143.7148  143.0004  167.4054 H       1  UNL1        0.1481
     23 O         145.2170  142.6700  161.0406 O.3     1  UNL1       -0.3845
     24 C         144.7295  142.6188  162.4582 C.3     1  UNL1        0.1106
     25 C         144.0964  143.8293  163.0778 C.3     1  UNL1        0.0309
     26 C         143.6088  143.7781  164.4955 C.3     1  UNL1        0.0220
     27 C         143.7544  142.5163  165.2935 C.3     1  UNL1        0.0705
     28 C         144.3875  141.3058  164.6739 C.3     1  UNL1        0.0220
     29 C         144.8750  141.3570  163.2563 C.3     1  UNL1        0.0309
     30 H         145.0480  143.5513  160.6723 H       1  UNL1        0.2103
@<TRIPOS>BOND
     1    24    23    1
     2    24    25    1
     3    25    26    1
     4    26    27    1
     5    27    21    1
     6    21     1    1
     7     1     2   ar
     8     2     3   ar
     9     3     4   ar
    10     4     5   ar
    11     5     6   ar
    12     6     7   ar
    13     7    10    1
    14    10    11   ar
    15    11    12   ar
    16    12    13   ar
    17    13    14   ar
    18    14    16    1
    19    16    17    1
    20    17    18    1
    21    17    19    1
    22    17    20    1
    23    14    15   ar
    24     7     8   ar
    25     8     9   ar
    26    27    28    1
    27    28    29    1
    28    29    24    1
    29     9     1   ar
    30     8     4   ar
    31    15    10   ar
    32    23    30    1
    33    21    22    1
@<TRIPOS>MOLECULE
*****
 30 33 0 0 0
SMALL
GASTEIGER

@<TRIPOS>ATOM
      1 C         142.3023  139.7818  165.2082 C.ar    1  UNL1        0.1317
      2 C         143.6379  139.1079  165.3167 C.ar    1  UNL1        0.0548
      3 C         144.7975  139.6064  164.5062 C.ar    1  UNL1        0.1049
      4 N         144.6213  140.7787  163.5871 N.ar    1  UNL1       -0.2105
      5 N         145.5741  141.4878  162.6709 N.ar    1  UNL1       -0.1621
      6 C         144.8273  142.6000  161.9962 C.ar    1  UNL1        0.1236
      7 C         143.4129  142.5782  162.4954 C.ar    1  UNL1        0.0569
      8 C         143.2856  141.4525  163.4786 C.ar    1  UNL1        0.1666
      9 N         142.1261  140.9541  164.2891 N.ar    1  UNL1       -0.2120
     10 C         142.3180  143.5171  162.0836 C.ar    1  UNL1        0.0075
     11 C         142.2608  144.0311  160.6755 C.ar    1  UNL1        0.0003
     12 C         141.1659  144.9700  160.2638 C.ar    1  UNL1        0.0031
     13 C         140.1282  145.3951  161.2600 C.ar    1  UNL1        0.0372
     14 C         140.1855  144.8811  162.6680 C.ar    1  UNL1        0.1468
     15 C         141.2803  143.9422  163.0798 C.ar    1  UNL1        0.0373
     16 O         139.1477  145.3062  163.6643 O.3     1  UNL1       -0.4045
     17 C         138.2228  144.2890  164.2641 C.3     1  UNL1        0.5753
     18 F         137.2979  143.2717  164.8640 F       1  UNL1       -0.1328
     19 F         137.4483  144.2364  162.9807 F       1  UNL1       -0.1328
     20 F         138.9974  144.3416  165.5476 F       1  UNL1       -0.1328
     21 N         141.1426  139.2834  166.0187 N.pl3   1  UNL1       -0.3196
     22 H         140.4501  138.7258  165.5960 H       1  UNL1        0.1481
     23 O         140.7251  140.6878  171.8370 O.3     1  UNL1       -0.3845
     24 C         140.8295  140.3367  170.3825 C.3     1  UNL1        0.1106
     25 C         142.1538  139.9413  169.7996 C.3     1  UNL1        0.0309
     26 C         142.2582  139.5902  168.3449 C.3     1  UNL1        0.0220
     27 C         141.0383  139.6345  167.4733 C.3     1  UNL1        0.0705
     28 C         139.7139  140.0299  168.0563 C.3     1  UNL1        0.0220
     29 C         139.6095  140.3810  169.5108 C.3     1  UNL1        0.0309
     30 H         141.5982  140.6087  172.2522 H       1  UNL1        0.2103
@<TRIPOS>BOND
     1    24    23    1
     2    24    25    1
     3    25    26    1
     4    26    27    1
     5    27    21    1
     6    21     1    1
     7     1     2   ar
     8     2     3   ar
     9     3     4   ar
    10     4     5   ar
    11     5     6   ar
    12     6     7   ar
    13     7    10    1
    14    10    11   ar
    15    11    12   ar
    16    12    13   ar
    17    13    14   ar
    18    14    16    1
    19    16    17    1
    20    17    18    1
    21    17    19    1
    22    17    20    1
    23    14    15   ar
    24     7     8   ar
    25     8     9   ar
    26    27    28    1
    27    28    29    1
    28    29    24    1
    29     9     1   ar
    30     8     4   ar
    31    15    10   ar
    32    23    30    1
    33    21    22    1
@<TRIPOS>MOLECULE
*****
 30 33 0 0 0
SMALL
GASTEIGER

@<TRIPOS>ATOM
      1 C         139.7670  142.3938  164.9738 C.ar    1  UNL1        0.1317
      2 C         138.5824  143.2828  165.2113 C.ar    1  UNL1        0.0548
      3 C         138.2902  144.4110  164.2671 C.ar    1  UNL1        0.1049
      4 N         139.1825  144.6504  163.0854 N.ar    1  UNL1       -0.2105
      5 N         139.1459  145.6761  161.9914 N.ar    1  UNL1       -0.1621
      6 C         140.3079  145.4210  161.0779 C.ar    1  UNL1        0.1236
      7 C         141.0627  144.2377  161.6072 C.ar    1  UNL1        0.0569
      8 C         140.3671  143.7614  162.8479 C.ar    1  UNL1        0.1666
      9 N         140.6593  142.6331  163.7921 N.ar    1  UNL1       -0.2120
     10 C         142.2964  143.6362  161.0020 C.ar    1  UNL1        0.0075
     11 C         142.4413  143.5634  159.5108 C.ar    1  UNL1        0.0003
     12 C         143.6750  142.9619  158.9057 C.ar    1  UNL1        0.0031
     13 C         144.7638  142.4332  159.7917 C.ar    1  UNL1        0.0372
     14 C         144.6188  142.5060  161.2829 C.ar    1  UNL1        0.1468
     15 C         143.3851  143.1075  161.8880 C.ar    1  UNL1        0.0373
     16 O         145.7076  141.9773  162.1690 O.3     1  UNL1       -0.4045
     17 C         145.3621  141.1306  163.3580 C.3     1  UNL1        0.5753
     18 F         145.0166  140.2840  164.5471 F       1  UNL1       -0.1328
     19 F         144.8188  140.0712  162.4457 F       1  UNL1       -0.1328
     20 F         145.9055  142.1902  164.2703 F       1  UNL1       -0.1328
     21 N         140.0592  141.2654  165.9180 N.pl3   1  UNL1       -0.3196
     22 H         140.2082  140.3572  165.5685 H       1  UNL1        0.1481
     23 O         140.3208  142.2874  171.8245 O.3     1  UNL1       -0.3845
     24 C         140.2554  142.0319  170.3479 C.3     1  UNL1        0.1106
     25 C         140.7883  143.0520  169.3859 C.3     1  UNL1        0.0309
     26 C         140.7229  142.7966  167.9092 C.3     1  UNL1        0.0220
     27 C         140.1246  141.5209  167.3946 C.3     1  UNL1        0.0705
     28 C         139.5917  140.5008  168.3566 C.3     1  UNL1        0.0220
     29 C         139.6571  140.7563  169.8332 C.3     1  UNL1        0.0309
     30 H         140.7331  143.1506  171.9853 H       1  UNL1        0.2103
@<TRIPOS>BOND
     1    24    23    1
     2    24    25    1
     3    25    26    1
     4    26    27    1
     5    27    21    1
     6    21     1    1
     7     1     2   ar
     8     2     3   ar
     9     3     4   ar
    10     4     5   ar
    11     5     6   ar
    12     6     7   ar
    13     7    10    1
    14    10    11   ar
    15    11    12   ar
    16    12    13   ar
    17    13    14   ar
    18    14    16    1
    19    16    17    1
    20    17    18    1
    21    17    19    1
    22    17    20    1
    23    14    15   ar
    24     7     8   ar
    25     8     9   ar
    26    27    28    1
    27    28    29    1
    28    29    24    1
    29     9     1   ar
    30     8     4   ar
    31    15    10   ar
    32    23    30    1
    33    21    22    1
@<TRIPOS>MOLECULE
*****
 30 33 0 0 0
SMALL
GASTEIGER

@<TRIPOS>ATOM
      1 C         139.2676  139.8659  168.0981 C.ar    1  UNL1        0.1317
      2 C         139.0344  140.1892  169.5442 C.ar    1  UNL1        0.0548
      3 C         140.0370  141.0095  170.3003 C.ar    1  UNL1        0.1049
      4 N         141.2727  141.5066  169.6105 N.ar    1  UNL1       -0.2105
      5 N         142.4297  142.3299  170.0938 N.ar    1  UNL1       -0.1621
      6 C         143.3779  142.5154  168.9464 C.ar    1  UNL1        0.1236
      7 C         142.8070  141.8067  167.7540 C.ar    1  UNL1        0.0569
      8 C         141.5059  141.1833  168.1644 C.ar    1  UNL1        0.1666
      9 N         140.5033  140.3629  167.4083 N.ar    1  UNL1       -0.2120
     10 C         143.4280  141.7343  166.3906 C.ar    1  UNL1        0.0075
     11 C         143.9788  142.9740  165.7505 C.ar    1  UNL1        0.0003
     12 C         144.5999  142.9015  164.3870 C.ar    1  UNL1        0.0031
     13 C         144.6702  141.5894  163.6636 C.ar    1  UNL1        0.0372
     14 C         144.1194  140.3497  164.3037 C.ar    1  UNL1        0.1468
     15 C         143.4983  140.4222  165.6672 C.ar    1  UNL1        0.0373
     16 O         144.1896  139.0375  163.5803 O.3     1  UNL1       -0.4045
     17 C         143.0199  138.5647  162.7691 C.3     1  UNL1        0.5753
     18 F         141.8500  138.0919  161.9579 F       1  UNL1       -0.1328
     19 F         143.5985  139.2223  161.5515 F       1  UNL1       -0.1328
     20 F         142.4413  137.9070  163.9868 F       1  UNL1       -0.1328
     21 N         138.2650  139.0455  167.3419 N.pl3   1  UNL1       -0.3196
     22 H         137.5351  138.5933  167.8236 H       1  UNL1        0.1481
     23 O         138.7029  138.5197  161.3811 O.3     1  UNL1       -0.3845
     24 C         138.5934  138.6511  162.8712 C.3     1  UNL1        0.1106
     25 C         138.1382  139.9449  163.4786 C.3     1  UNL1        0.0309
     26 C         138.0287  140.0764  164.9688 C.3     1  UNL1        0.0220
     27 C         138.3744  138.9141  165.8517 C.3     1  UNL1        0.0705
     28 C         138.8297  137.6203  165.2443 C.3     1  UNL1        0.0220
     29 C         138.9392  137.4888  163.7541 C.3     1  UNL1        0.0309
     30 H         138.4445  139.3559  160.9629 H       1  UNL1        0.2103
@<TRIPOS>BOND
     1    24    23    1
     2    24    25    1
     3    25    26    1
     4    26    27    1
     5    27    21    1
     6    21     1    1
     7     1     2   ar
     8     2     3   ar
     9     3     4   ar
    10     4     5   ar
    11     5     6   ar
    12     6     7   ar
    13     7    10    1
    14    10    11   ar
    15    11    12   ar
    16    12    13   ar
    17    13    14   ar
    18    14    16    1
    19    16    17    1
    20    17    18    1
    21    17    19    1
    22    17    20    1
    23    14    15   ar
    24     7     8   ar
    25     8     9   ar
    26    27    28    1
    27    28    29    1
    28    29    24    1
    29     9     1   ar
    30     8     4   ar
    31    15    10   ar
    32    23    30    1
    33    21    22    1
@<TRIPOS>MOLECULE
*****
 30 33 0 0 0
SMALL
GASTEIGER

@<TRIPOS>ATOM
      1 C         140.4103  142.7526  167.0598 C.ar    1  UNL1        0.1317
      2 C         140.5984  142.7929  168.5474 C.ar    1  UNL1        0.0548
      3 C         141.4134  141.7342  169.2292 C.ar    1  UNL1        0.1049
      4 N         142.0405  140.6354  168.4234 N.ar    1  UNL1       -0.2105
      5 N         142.8905  139.4631  168.8151 N.ar    1  UNL1       -0.1621
      6 C         143.2278  138.6984  167.5696 C.ar    1  UNL1        0.1236
      7 C         142.5862  139.3980  166.4081 C.ar    1  UNL1        0.0569
      8 C         141.8525  140.5951  166.9358 C.ar    1  UNL1        0.1666
      9 N         141.0374  141.6537  166.2540 N.ar    1  UNL1       -0.2120
     10 C         142.6647  138.9749  164.9712 C.ar    1  UNL1        0.0075
     11 C         143.9265  139.1980  164.1914 C.ar    1  UNL1        0.0003
     12 C         144.0050  138.7748  162.7545 C.ar    1  UNL1        0.0031
     13 C         142.8217  138.1285  162.0973 C.ar    1  UNL1        0.0372
     14 C         141.5598  137.9054  162.8770 C.ar    1  UNL1        0.1468
     15 C         141.4814  138.3286  164.3139 C.ar    1  UNL1        0.0373
     16 O         140.3764  137.2591  162.2198 O.3     1  UNL1       -0.4045
     17 C         139.0701  137.9919  162.1396 C.3     1  UNL1        0.5753
     18 F         137.7637  138.7248  162.0593 F       1  UNL1       -0.1328
     19 F         138.5309  137.1534  163.2604 F       1  UNL1       -0.1328
     20 F         139.6093  138.8303  161.0187 F       1  UNL1       -0.1328
     21 N         139.5952  143.8113  166.3779 N.pl3   1  UNL1       -0.3196
     22 H         139.3202  144.6162  166.8735 H       1  UNL1        0.1481
     23 O         138.0109  143.1400  160.6300 O.3     1  UNL1       -0.3845
     24 C         138.4070  143.3078  162.0669 C.3     1  UNL1        0.1106
     25 C         139.5989  144.1458  162.4234 C.3     1  UNL1        0.0309
     26 C         139.9950  144.3137  163.8604 C.3     1  UNL1        0.0220
     27 C         139.1992  143.6435  164.9409 C.3     1  UNL1        0.0705
     28 C         138.0072  142.8054  164.5844 C.3     1  UNL1        0.0220
     29 C         137.6112  142.6376  163.1474 C.3     1  UNL1        0.0309
     30 H         138.6253  143.6347  160.0654 H       1  UNL1        0.2103
@<TRIPOS>BOND
     1    24    23    1
     2    24    25    1
     3    25    26    1
     4    26    27    1
     5    27    21    1
     6    21     1    1
     7     1     2   ar
     8     2     3   ar
     9     3     4   ar
    10     4     5   ar
    11     5     6   ar
    12     6     7   ar
    13     7    10    1
    14    10    11   ar
    15    11    12   ar
    16    12    13   ar
    17    13    14   ar
    18    14    16    1
    19    16    17    1
    20    17    18    1
    21    17    19    1
    22    17    20    1
    23    14    15   ar
    24     7     8   ar
    25     8     9   ar
    26    27    28    1
    27    28    29    1
    28    29    24    1
    29     9     1   ar
    30     8     4   ar
    31    15    10   ar
    32    23    30    1
    33    21    22    1
@<TRIPOS>MOLECULE
*****
 30 33 0 0 0
SMALL
GASTEIGER

@<TRIPOS>ATOM
      1 C         140.2669  139.2268  165.5302 C.ar    1  UNL1        0.1317
      2 C         139.6386  137.9241  165.1325 C.ar    1  UNL1        0.0548
      3 C         138.8272  137.8361  163.8740 C.ar    1  UNL1        0.1049
      4 N         138.6440  139.0507  163.0132 N.ar    1  UNL1       -0.2105
      5 N         137.9037  139.2667  161.7266 N.ar    1  UNL1       -0.1621
      6 C         138.0744  140.7030  161.3291 C.ar    1  UNL1        0.1236
      7 C         138.9203  141.3746  162.3701 C.ar    1  UNL1        0.0569
      8 C         139.2723  140.3534  163.4109 C.ar    1  UNL1        0.1666
      9 N         140.0837  140.4415  164.6693 N.ar    1  UNL1       -0.2120
     10 C         139.3403  142.8146  162.3702 C.ar    1  UNL1        0.0075
     11 C         138.3068  143.8973  162.4677 C.ar    1  UNL1        0.0003
     12 C         138.7269  145.3373  162.4678 C.ar    1  UNL1        0.0031
     13 C         140.1804  145.6946  162.3704 C.ar    1  UNL1        0.0372
     14 C         141.2139  144.6118  162.2728 C.ar    1  UNL1        0.1468
     15 C         140.7939  143.1719  162.2727 C.ar    1  UNL1        0.0373
     16 O         142.6676  144.9691  162.1754 O.3     1  UNL1       -0.4045
     17 C         143.5710  144.7640  163.3551 C.3     1  UNL1        0.5753
     18 F         144.4744  144.5589  164.5349 F       1  UNL1       -0.1328
     19 F         144.5413  144.0234  162.4833 F       1  UNL1       -0.1328
     20 F         142.6007  145.5046  164.2269 F       1  UNL1       -0.1328
     21 N         141.0784  139.3149  166.7887 N.pl3   1  UNL1       -0.3196
     22 H         141.8671  138.7378  166.9072 H       1  UNL1        0.1481
     23 O         139.5174  143.1846  171.1001 O.3     1  UNL1       -0.3845
     24 C         139.9076  142.2172  170.0222 C.3     1  UNL1        0.1106
     25 C         140.9619  142.5925  169.0235 C.3     1  UNL1        0.0309
     26 C         141.3522  141.6250  167.9456 C.3     1  UNL1        0.0220
     27 C         140.6881  140.2823  167.8665 C.3     1  UNL1        0.0705
     28 C         139.6338  139.9071  168.8654 C.3     1  UNL1        0.0220
     29 C         139.2435  140.8745  169.9432 C.3     1  UNL1        0.0309
     30 H         140.0381  143.9979  171.0087 H       1  UNL1        0.2103
@<TRIPOS>BOND
     1    24    23    1
     2    24    25    1
     3    25    26    1
     4    26    27    1
     5    27    21    1
     6    21     1    1
     7     1     2   ar
     8     2     3   ar
     9     3     4   ar
    10     4     5   ar
    11     5     6   ar
    12     6     7   ar
    13     7    10    1
    14    10    11   ar
    15    11    12   ar
    16    12    13   ar
    17    13    14   ar
    18    14    16    1
    19    16    17    1
    20    17    18    1
    21    17    19    1
    22    17    20    1
    23    14    15   ar
    24     7     8   ar
    25     8     9   ar
    26    27    28    1
    27    28    29    1
    28    29    24    1
    29     9     1   ar
    30     8     4   ar
    31    15    10   ar
    32    23    30    1
    33    21    22    1
@<TRIPOS>MOLECULE
*****
 30 33 0 0 0
SMALL
GASTEIGER

@<TRIPOS>ATOM
      1 C         142.4279  140.5455  165.7450 C.ar    1  UNL1        0.1317
      2 C         142.8705  139.1746  166.1631 C.ar    1  UNL1        0.0548
      3 C         142.5197  137.9839  165.3211 C.ar    1  UNL1        0.1049
      4 N         141.7263  138.1641  164.0609 N.ar    1  UNL1       -0.2105
      5 N         141.2348  137.1855  163.0357 N.ar    1  UNL1       -0.1621
      6 C         140.4885  137.9516  161.9840 C.ar    1  UNL1        0.1236
      7 C         140.5187  139.4037  162.3592 C.ar    1  UNL1        0.0569
      8 C         141.2838  139.5350  163.6427 C.ar    1  UNL1        0.1666
      9 N         141.6346  140.7256  164.4848 N.ar    1  UNL1       -0.2120
     10 C         139.8937  140.5272  161.5865 C.ar    1  UNL1        0.0075
     11 C         140.0539  140.5929  160.0965 C.ar    1  UNL1        0.0003
     12 C         139.4289  141.7164  159.3238 C.ar    1  UNL1        0.0031
     13 C         138.6437  142.7742  160.0410 C.ar    1  UNL1        0.0372
     14 C         138.4835  142.7085  161.5310 C.ar    1  UNL1        0.1468
     15 C         139.1085  141.5850  162.3037 C.ar    1  UNL1        0.0373
     16 O         137.6982  143.7663  162.2483 O.3     1  UNL1       -0.4045
     17 C         138.3064  144.4929  163.4111 C.3     1  UNL1        0.5753
     18 F         138.9148  145.2195  164.5739 F       1  UNL1       -0.1328
     19 F         137.4761  143.6757  164.3560 F       1  UNL1       -0.1328
     20 F         139.1368  145.3101  162.4661 F       1  UNL1       -0.1328
     21 N         142.7787  141.7362  166.5871 N.pl3   1  UNL1       -0.3196
     22 H         143.3884  142.4250  166.2361 H       1  UNL1        0.1481
     23 O         140.4664  142.3019  172.0946 O.3     1  UNL1       -0.3845
     24 C         141.0445  142.1605  170.7178 C.3     1  UNL1        0.1106
     25 C         142.3601  141.4664  170.5244 C.3     1  UNL1        0.0309
     26 C         142.9382  141.3250  169.1475 C.3     1  UNL1        0.0220
     27 C         142.2007  141.8776  167.9640 C.3     1  UNL1        0.0705
     28 C         140.8850  142.5717  168.1574 C.3     1  UNL1        0.0220
     29 C         140.3069  142.7131  169.5343 C.3     1  UNL1        0.0309
     30 H         141.0645  141.8935  172.7399 H       1  UNL1        0.2103
@<TRIPOS>BOND
     1    24    23    1
     2    24    25    1
     3    25    26    1
     4    26    27    1
     5    27    21    1
     6    21     1    1
     7     1     2   ar
     8     2     3   ar
     9     3     4   ar
    10     4     5   ar
    11     5     6   ar
    12     6     7   ar
    13     7    10    1
    14    10    11   ar
    15    11    12   ar
    16    12    13   ar
    17    13    14   ar
    18    14    16    1
    19    16    17    1
    20    17    18    1
    21    17    19    1
    22    17    20    1
    23    14    15   ar
    24     7     8   ar
    25     8     9   ar
    26    27    28    1
    27    28    29    1
    28    29    24    1
    29     9     1   ar
    30     8     4   ar
    31    15    10   ar
    32    23    30    1
    33    21    22    1
