@<TRIPOS>MOLECULE
*****
 36 38 0 0 0
SMALL
GASTEIGER

@<TRIPOS>ATOM
      1 C         143.4693  143.2279  161.5239 C.3     1  UNL1        0.1058
      2 C         143.9446  143.9757  162.7343 C.3     1  UNL1        0.1700
      3 O         143.8950  145.4746  162.7571 O.3     1  UNL1       -0.3793
      4 H         143.5322  145.7990  161.9180 H       1  UNL1        0.2106
      5 C         144.4695  143.2244  163.9217 C.3     1  UNL1        0.2358
      6 O         144.1753  141.7614  164.0736 O.3     1  UNL1       -0.4728
      7 C         141.3710  140.3532  167.2989 C.ar    1  UNL1        0.0646
      8 C         142.3036  139.3812  166.6390 C.ar    1  UNL1        0.0190
      9 C         143.2384  139.8507  165.5639 C.ar    1  UNL1        0.0382
     10 C         143.2405  141.2920  165.1487 C.ar    1  UNL1        0.1388
     11 C         142.3079  142.2639  165.8086 C.ar    1  UNL1        0.0382
     12 C         141.3731  141.7945  166.8836 C.ar    1  UNL1        0.0190
     13 N         140.4362  139.8838  168.3739 N.pl3   1  UNL1       -0.2187
     14 H         139.6938  139.2771  168.1503 H       1  UNL1        0.1734
     15 C         140.8288  140.7937  171.2056 C.3     1  UNL1        0.1996
     16 S         140.6325  140.3387  169.7897 S.O2    1  UNL1        0.0558
     17 O         139.4271  141.2237  169.6725 O.2     1  UNL1       -0.1544
     18 O         141.8379  139.4537  169.9069 O.2     1  UNL1       -0.1544
     19 N         142.0005  143.0265  161.2956 N.3     1  UNL1       -0.2665
     20 C         141.4796  141.6730  160.9127 C.3     1  UNL1        0.0771
     21 C         142.0109  140.4454  161.5915 C.3     1  UNL1        0.0437
     22 C         141.1565  139.7039  162.5766 C.ar    1  UNL1       -0.0199
     23 C         141.3268  138.2241  162.7525 C.ar    1  UNL1       -0.0033
     24 C         140.4725  137.4827  163.7376 C.ar    1  UNL1        0.0119
     25 C         139.4477  138.2211  164.5467 C.ar    1  UNL1        0.0682
     26 CL        138.5934  137.4796  165.5317 Cl      1  UNL1       -0.0814
     27 C         139.2774  139.7010  164.3707 C.ar    1  UNL1        0.0679
     28 CL        138.2527  140.4394  165.1798 Cl      1  UNL1       -0.0814
     29 C         140.1318  140.4423  163.3857 C.ar    1  UNL1        0.0080
     30 C         141.0526  144.1788  161.4502 C.3     1  UNL1        0.0992
     31 C         140.0081  144.1515  162.5265 C.ar    1  UNL1       -0.0061
     32 C         138.6479  143.5890  162.2375 C.ar    1  UNL1       -0.0029
     33 C         137.6035  143.5618  163.3138 C.ar    1  UNL1       -0.0003
     34 C         137.9193  144.0970  164.6790 C.ar    1  UNL1       -0.0000
     35 C         139.2795  144.6594  164.9680 C.ar    1  UNL1       -0.0003
     36 C         140.3239  144.6866  163.8917 C.ar    1  UNL1       -0.0029
@<TRIPOS>BOND
     1    15    16    1
     2    16    17    2
     3    16    18    2
     4    16    13    1
     5    13     7    1
     6     7     8   ar
     7     8     9   ar
     8     9    10   ar
     9    10     6    1
    10     6     5    1
    11     5     2    1
    12     2     3    1
    13     2     1    1
    14     1    19    1
    15    19    20    1
    16    20    21    1
    17    21    22    1
    18    22    23   ar
    19    23    24   ar
    20    24    25   ar
    21    25    26    1
    22    25    27   ar
    23    27    28    1
    24    27    29   ar
    25    19    30    1
    26    30    31    1
    27    31    32   ar
    28    32    33   ar
    29    33    34   ar
    30    34    35   ar
    31    35    36   ar
    32    10    11   ar
    33    11    12   ar
    34    12     7   ar
    35    29    22   ar
    36    36    31   ar
    37    13    14    1
    38     3     4    1
@<TRIPOS>MOLECULE
*****
 36 38 0 0 0
SMALL
GASTEIGER

@<TRIPOS>ATOM
      1 C         138.2342  142.3082  161.5721 C.3     1  UNL1        0.1058
      2 C         137.8276  143.2457  162.6703 C.3     1  UNL1        0.1700
      3 O         137.5906  144.6959  162.3690 O.3     1  UNL1       -0.3793
      4 H         137.7424  144.8590  161.4249 H       1  UNL1        0.2106
      5 C         137.6578  142.7330  164.0697 C.3     1  UNL1        0.2358
      6 O         138.2663  141.4206  164.4665 O.3     1  UNL1       -0.4728
      7 C         141.6493  141.3141  167.4320 C.ar    1  UNL1        0.0646
      8 C         141.6192  142.3691  166.3661 C.ar    1  UNL1        0.0190
      9 C         140.4915  142.4046  165.3776 C.ar    1  UNL1        0.0382
     10 C         139.3940  141.3851  165.4550 C.ar    1  UNL1        0.1388
     11 C         139.4241  140.3302  166.5209 C.ar    1  UNL1        0.0382
     12 C         140.5517  140.2947  167.5094 C.ar    1  UNL1        0.0190
     13 N         142.7769  141.2786  168.4205 N.pl3   1  UNL1       -0.2187
     14 H         143.7057  141.3846  168.1117 H       1  UNL1        0.1734
     15 C         142.2020  140.8847  171.3384 C.3     1  UNL1        0.1996
     16 S         142.4895  141.0817  169.8794 S.O2    1  UNL1        0.0558
     17 O         141.8492  142.4369  169.9363 O.2     1  UNL1       -0.1544
     18 O         143.1298  139.7264  169.8226 O.2     1  UNL1       -0.1544
     19 N         139.6616  142.2650  161.1131 N.3     1  UNL1       -0.2665
     20 C         140.3440  140.9451  160.9085 C.3     1  UNL1        0.0771
     21 C         139.9903  139.7751  161.7780 C.3     1  UNL1        0.0437
     22 C         140.9071  139.3640  162.8918 C.ar    1  UNL1       -0.0199
     23 C         140.5817  138.1604  163.7256 C.ar    1  UNL1       -0.0033
     24 C         141.4985  137.7494  164.8393 C.ar    1  UNL1        0.0119
     25 C         142.7408  138.5420  165.1192 C.ar    1  UNL1        0.0682
     26 CL        143.6577  138.1310  166.2330 Cl      1  UNL1       -0.0814
     27 C         143.0663  139.7457  164.2854 C.ar    1  UNL1        0.0679
     28 CL        144.3086  140.5383  164.5653 Cl      1  UNL1       -0.0814
     29 C         142.1495  140.1567  163.1717 C.ar    1  UNL1        0.0080
     30 C         140.4065  143.5419  160.8587 C.3     1  UNL1        0.0992
     31 C         141.4545  144.0045  161.8271 C.ar    1  UNL1       -0.0061
     32 C         142.8454  143.4483  161.7493 C.ar    1  UNL1       -0.0029
     33 C         143.8934  143.9109  162.7177 C.ar    1  UNL1       -0.0003
     34 C         143.5504  144.9297  163.7639 C.ar    1  UNL1       -0.0000
     35 C         142.1596  145.4859  163.8416 C.ar    1  UNL1       -0.0003
     36 C         141.1116  145.0233  162.8732 C.ar    1  UNL1       -0.0029
@<TRIPOS>BOND
     1    15    16    1
     2    16    17    2
     3    16    18    2
     4    16    13    1
     5    13     7    1
     6     7     8   ar
     7     8     9   ar
     8     9    10   ar
     9    10     6    1
    10     6     5    1
    11     5     2    1
    12     2     3    1
    13     2     1    1
    14     1    19    1
    15    19    20    1
    16    20    21    1
    17    21    22    1
    18    22    23   ar
    19    23    24   ar
    20    24    25   ar
    21    25    26    1
    22    25    27   ar
    23    27    28    1
    24    27    29   ar
    25    19    30    1
    26    30    31    1
    27    31    32   ar
    28    32    33   ar
    29    33    34   ar
    30    34    35   ar
    31    35    36   ar
    32    10    11   ar
    33    11    12   ar
    34    12     7   ar
    35    29    22   ar
    36    36    31   ar
    37    13    14    1
    38     3     4    1
@<TRIPOS>MOLECULE
*****
 36 38 0 0 0
SMALL
GASTEIGER

@<TRIPOS>ATOM
      1 C         140.8621  144.5764  161.4791 C.3     1  UNL1        0.1058
      2 C         139.8407  145.4705  162.1175 C.3     1  UNL1        0.1700
      3 O         140.1265  146.9329  162.2888 O.3     1  UNL1       -0.3793
      4 H         141.0077  147.1336  161.9367 H       1  UNL1        0.2106
      5 C         138.5335  144.9019  162.5845 C.3     1  UNL1        0.2358
      6 O         137.8350  143.8569  161.7661 O.3     1  UNL1       -0.4728
      7 C         138.4280  139.4960  162.7045 C.ar    1  UNL1        0.0646
      8 C         137.8382  140.4116  163.7358 C.ar    1  UNL1        0.0190
      9 C         137.6405  141.8652  163.4230 C.ar    1  UNL1        0.0382
     10 C         138.0327  142.4033  162.0789 C.ar    1  UNL1        0.1388
     11 C         138.6225  141.4877  161.0476 C.ar    1  UNL1        0.0382
     12 C         138.8202  140.0340  161.3604 C.ar    1  UNL1        0.0190
     13 N         138.6257  138.0423  163.0173 N.pl3   1  UNL1       -0.2187
     14 H         137.9420  137.3848  162.7540 H       1  UNL1        0.1734
     15 C         141.1047  137.1388  164.4451 C.3     1  UNL1        0.1996
     16 S         139.8652  137.5906  163.7311 S.O2    1  UNL1        0.0558
     17 O         139.1881  137.8173  165.0502 O.2     1  UNL1       -0.1544
     18 O         140.5423  137.3639  162.4120 O.2     1  UNL1       -0.1544
     19 N         141.8614  143.8515  162.3311 N.3     1  UNL1       -0.2665
     20 C         141.8888  144.0793  163.8134 C.3     1  UNL1        0.0771
     21 C         140.8289  143.4737  164.6850 C.3     1  UNL1        0.0437
     22 C         141.2054  142.4773  165.7412 C.ar    1  UNL1       -0.0199
     23 C         142.6430  142.3077  166.1339 C.ar    1  UNL1       -0.0033
     24 C         143.0194  141.3114  167.1901 C.ar    1  UNL1        0.0119
     25 C         141.9582  140.4845  167.8535 C.ar    1  UNL1        0.0682
     26 CL        142.3347  139.4881  168.9097 Cl      1  UNL1       -0.0814
     27 C         140.5205  140.6541  167.4607 C.ar    1  UNL1        0.0679
     28 CL        139.4592  139.8273  168.1241 Cl      1  UNL1       -0.0814
     29 C         140.1441  141.6505  166.4046 C.ar    1  UNL1        0.0080
     30 C         142.8334  142.8986  161.7006 C.3     1  UNL1        0.0992
     31 C         143.5702  141.9067  162.5511 C.ar    1  UNL1       -0.0061
     32 C         142.9382  140.5873  162.8826 C.ar    1  UNL1       -0.0029
     33 C         143.6749  139.5954  163.7331 C.ar    1  UNL1       -0.0003
     34 C         145.0437  139.9230  164.2522 C.ar    1  UNL1       -0.0000
     35 C         145.6756  141.2423  163.9207 C.ar    1  UNL1       -0.0003
     36 C         144.9389  142.2342  163.0702 C.ar    1  UNL1       -0.0029
@<TRIPOS>BOND
     1    15    16    1
     2    16    17    2
     3    16    18    2
     4    16    13    1
     5    13     7    1
     6     7     8   ar
     7     8     9   ar
     8     9    10   ar
     9    10     6    1
    10     6     5    1
    11     5     2    1
    12     2     3    1
    13     2     1    1
    14     1    19    1
    15    19    20    1
    16    20    21    1
    17    21    22    1
    18    22    23   ar
    19    23    24   ar
    20    24    25   ar
    21    25    26    1
    22    25    27   ar
    23    27    28    1
    24    27    29   ar
    25    19    30    1
    26    30    31    1
    27    31    32   ar
    28    32    33   ar
    29    33    34   ar
    30    34    35   ar
    31    35    36   ar
    32    10    11   ar
    33    11    12   ar
    34    12     7   ar
    35    29    22   ar
    36    36    31   ar
    37    13    14    1
    38     3     4    1
@<TRIPOS>MOLECULE
*****
 36 38 0 0 0
SMALL
GASTEIGER

@<TRIPOS>ATOM
      1 C         142.5986  137.9842  163.0725 C.3     1  UNL1        0.1058
      2 C         143.8415  138.7040  162.6396 C.3     1  UNL1        0.1700
      3 O         144.4450  138.4172  161.2966 O.3     1  UNL1       -0.3793
      4 H         143.9126  137.7477  160.8392 H       1  UNL1        0.2106
      5 C         144.4807  139.7106  163.5496 C.3     1  UNL1        0.2358
      6 O         143.6691  140.8453  164.1008 O.3     1  UNL1       -0.4728
      7 C         142.5727  140.9157  168.4646 C.ar    1  UNL1        0.0646
      8 C         142.7412  142.2026  167.7128 C.ar    1  UNL1        0.0190
      9 C         143.1067  142.1792  166.2582 C.ar    1  UNL1        0.0382
     10 C         143.3037  140.8687  165.5554 C.ar    1  UNL1        0.1388
     11 C         143.1351  139.5818  166.3072 C.ar    1  UNL1        0.0382
     12 C         142.7696  139.6052  167.7618 C.ar    1  UNL1        0.0190
     13 N         142.2072  140.9391  169.9192 N.pl3   1  UNL1       -0.2187
     14 H         142.7044  140.3820  170.5607 H       1  UNL1        0.1734
     15 C         139.9610  142.6838  170.8735 C.3     1  UNL1        0.1996
     16 S         141.0841  141.8115  170.3963 S.O2    1  UNL1        0.0558
     17 O         140.0968  140.9179  169.7060 O.2     1  UNL1       -0.1544
     18 O         142.0715  142.7050  171.0867 O.2     1  UNL1       -0.1544
     19 N         141.2511  138.5065  162.6710 N.3     1  UNL1       -0.2665
     20 C         141.1477  139.6776  161.7395 C.3     1  UNL1        0.0771
     21 C         139.8421  140.3997  161.5845 C.3     1  UNL1        0.0437
     22 C         139.4905  141.5218  162.5158 C.ar    1  UNL1       -0.0199
     23 C         138.0866  141.6620  163.0250 C.ar    1  UNL1       -0.0033
     24 C         137.7350  142.7840  163.9562 C.ar    1  UNL1        0.0119
     25 C         138.7875  143.7659  164.3784 C.ar    1  UNL1        0.0682
     26 CL        138.4359  144.8881  165.3098 Cl      1  UNL1       -0.0814
     27 C         140.1914  143.6258  163.8693 C.ar    1  UNL1        0.0679
     28 CL        141.2438  144.6077  164.2915 Cl      1  UNL1       -0.0814
     29 C         140.5429  142.5037  162.9380 C.ar    1  UNL1        0.0080
     30 C         140.0068  137.8577  163.2012 C.3     1  UNL1        0.0992
     31 C         139.4523  138.2740  164.5313 C.ar    1  UNL1       -0.0061
     32 C         139.8958  139.5623  165.1588 C.ar    1  UNL1       -0.0029
     33 C         139.3413  139.9786  166.4889 C.ar    1  UNL1       -0.0003
     34 C         138.3433  139.1066  167.1915 C.ar    1  UNL1       -0.0000
     35 C         137.8998  137.8184  166.5641 C.ar    1  UNL1       -0.0003
     36 C         138.4543  137.4021  165.2339 C.ar    1  UNL1       -0.0029
@<TRIPOS>BOND
     1    15    16    1
     2    16    17    2
     3    16    18    2
     4    16    13    1
     5    13     7    1
     6     7     8   ar
     7     8     9   ar
     8     9    10   ar
     9    10     6    1
    10     6     5    1
    11     5     2    1
    12     2     3    1
    13     2     1    1
    14     1    19    1
    15    19    20    1
    16    20    21    1
    17    21    22    1
    18    22    23   ar
    19    23    24   ar
    20    24    25   ar
    21    25    26    1
    22    25    27   ar
    23    27    28    1
    24    27    29   ar
    25    19    30    1
    26    30    31    1
    27    31    32   ar
    28    32    33   ar
    29    33    34   ar
    30    34    35   ar
    31    35    36   ar
    32    10    11   ar
    33    11    12   ar
    34    12     7   ar
    35    29    22   ar
    36    36    31   ar
    37    13    14    1
    38     3     4    1
@<TRIPOS>MOLECULE
*****
 36 38 0 0 0
SMALL
GASTEIGER

@<TRIPOS>ATOM
      1 C         138.9871  138.3805  165.5652 C.3     1  UNL1        0.1058
      2 C         138.8436  139.8544  165.8042 C.3     1  UNL1        0.1700
      3 O         137.6776  140.5984  165.2237 O.3     1  UNL1       -0.3793
      4 H         137.1169  139.9830  164.7260 H       1  UNL1        0.2106
      5 C         139.8661  140.5843  166.6238 C.3     1  UNL1        0.2358
      6 O         139.7249  142.0589  166.8594 O.3     1  UNL1       -0.4728
      7 C         140.6410  144.9647  163.5478 C.ar    1  UNL1        0.0646
      8 C         139.2248  144.7651  164.0000 C.ar    1  UNL1        0.0190
      9 C         138.9195  143.7965  165.1039 C.ar    1  UNL1        0.0382
     10 C         140.0303  143.0275  165.7555 C.ar    1  UNL1        0.1388
     11 C         141.4464  143.2271  165.3033 C.ar    1  UNL1        0.0382
     12 C         141.7518  144.1957  164.1994 C.ar    1  UNL1        0.0190
     13 N         140.9464  145.9333  162.4439 N.pl3   1  UNL1       -0.2187
     14 H         141.3794  146.7932  162.6493 H       1  UNL1        0.1734
     15 C         140.2376  145.2500  159.6100 C.3     1  UNL1        0.1996
     16 S         140.5920  145.5917  161.0270 S.O2    1  UNL1        0.0558
     17 O         139.3039  146.3473  161.1669 O.2     1  UNL1       -0.1544
     18 O         141.8802  144.8360  160.8870 O.2     1  UNL1       -0.1544
     19 N         139.6901  137.8850  164.3363 N.3     1  UNL1       -0.2665
     20 C         140.9438  137.0719  164.4660 C.3     1  UNL1        0.0771
     21 C         142.1886  137.6965  165.0232 C.3     1  UNL1        0.0437
     22 C         142.9242  138.7373  164.2322 C.ar    1  UNL1       -0.0199
     23 C         143.3299  140.0263  164.8833 C.ar    1  UNL1       -0.0033
     24 C         144.0654  141.0670  164.0923 C.ar    1  UNL1        0.0119
     25 C         144.3953  140.8188  162.6502 C.ar    1  UNL1        0.0682
     26 CL        145.1309  141.8597  161.8592 Cl      1  UNL1       -0.0814
     27 C         143.9896  139.5299  161.9991 C.ar    1  UNL1        0.0679
     28 CL        144.3195  139.2817  160.5570 Cl      1  UNL1       -0.0814
     29 C         143.2541  138.4891  162.7901 C.ar    1  UNL1        0.0080
     30 C         139.1393  138.2026  162.9776 C.3     1  UNL1        0.0992
     31 C         139.8215  139.2189  162.1106 C.ar    1  UNL1       -0.0061
     32 C         140.2079  138.8669  160.7046 C.ar    1  UNL1       -0.0029
     33 C         140.8901  139.8832  159.8375 C.ar    1  UNL1       -0.0003
     34 C         141.1859  141.2514  160.3765 C.ar    1  UNL1       -0.0000
     35 C         140.7995  141.6034  161.7825 C.ar    1  UNL1       -0.0003
     36 C         140.1172  140.5871  162.6495 C.ar    1  UNL1       -0.0029
@<TRIPOS>BOND
     1    15    16    1
     2    16    17    2
     3    16    18    2
     4    16    13    1
     5    13     7    1
     6     7     8   ar
     7     8     9   ar
     8     9    10   ar
     9    10     6    1
    10     6     5    1
    11     5     2    1
    12     2     3    1
    13     2     1    1
    14     1    19    1
    15    19    20    1
    16    20    21    1
    17    21    22    1
    18    22    23   ar
    19    23    24   ar
    20    24    25   ar
    21    25    26    1
    22    25    27   ar
    23    27    28    1
    24    27    29   ar
    25    19    30    1
    26    30    31    1
    27    31    32   ar
    28    32    33   ar
    29    33    34   ar
    30    34    35   ar
    31    35    36   ar
    32    10    11   ar
    33    11    12   ar
    34    12     7   ar
    35    29    22   ar
    36    36    31   ar
    37    13    14    1
    38     3     4    1
@<TRIPOS>MOLECULE
*****
 36 38 0 0 0
SMALL
GASTEIGER

@<TRIPOS>ATOM
      1 C         141.8481  144.2604  161.3476 C.3     1  UNL1        0.1058
      2 C         142.5320  144.8723  162.5343 C.3     1  UNL1        0.1700
      3 O         143.9946  145.1988  162.4711 O.3     1  UNL1       -0.3793
      4 H         144.3434  144.9533  161.5999 H       1  UNL1        0.2106
      5 C         141.7530  145.1578  163.7840 C.3     1  UNL1        0.2358
      6 O         140.6414  144.2410  164.2007 O.3     1  UNL1       -0.4728
      7 C         141.4214  140.9760  167.1976 C.ar    1  UNL1        0.0646
      8 C         142.2056  141.0242  165.9198 C.ar    1  UNL1        0.0190
      9 C         141.9456  142.1125  164.9209 C.ar    1  UNL1        0.0382
     10 C         140.9014  143.1527  165.1997 C.ar    1  UNL1        0.1388
     11 C         140.1173  143.1045  166.4774 C.ar    1  UNL1        0.0382
     12 C         140.3773  142.0161  167.4764 C.ar    1  UNL1        0.0190
     13 N         141.6814  139.8876  168.1965 N.pl3   1  UNL1       -0.2187
     14 H         141.7683  138.9541  167.8960 H       1  UNL1        0.1734
     15 C         141.9367  140.5555  171.1101 C.3     1  UNL1        0.1996
     16 S         141.8091  140.2216  169.6533 S.O2    1  UNL1        0.0558
     17 O         140.4902  139.5591  169.9207 O.2     1  UNL1       -0.1544
     18 O         143.1280  140.8840  169.3859 O.2     1  UNL1       -0.1544
     19 N         142.0658  142.8128  161.0207 N.3     1  UNL1       -0.2665
     20 C         140.8895  141.9038  160.8212 C.3     1  UNL1        0.0771
     21 C         139.7132  141.9849  161.7485 C.3     1  UNL1        0.0437
     22 C         139.4522  140.8786  162.7274 C.ar    1  UNL1       -0.0199
     23 C         138.3937  141.0408  163.7777 C.ar    1  UNL1       -0.0033
     24 C         138.1327  139.9346  164.7565 C.ar    1  UNL1        0.0119
     25 C         138.9302  138.6662  164.6849 C.ar    1  UNL1        0.0682
     26 CL        138.6691  137.5599  165.6638 Cl      1  UNL1       -0.0814
     27 C         139.9887  138.5040  163.6346 C.ar    1  UNL1        0.0679
     28 CL        140.7862  137.2356  163.5631 Cl      1  UNL1       -0.0814
     29 C         140.2497  139.6102  162.6558 C.ar    1  UNL1        0.0080
     30 C         143.4600  142.2741  160.8931 C.3     1  UNL1        0.0992
     31 C         144.0473  141.4444  161.9962 C.ar    1  UNL1       -0.0061
     32 C         145.0828  142.0333  162.9078 C.ar    1  UNL1       -0.0029
     33 C         145.6700  141.2036  164.0108 C.ar    1  UNL1       -0.0003
     34 C         145.2218  139.7850  164.2023 C.ar    1  UNL1       -0.0000
     35 C         144.1863  139.1961  163.2907 C.ar    1  UNL1       -0.0003
     36 C         143.5991  140.0258  162.1876 C.ar    1  UNL1       -0.0029
@<TRIPOS>BOND
     1    15    16    1
     2    16    17    2
     3    16    18    2
     4    16    13    1
     5    13     7    1
     6     7     8   ar
     7     8     9   ar
     8     9    10   ar
     9    10     6    1
    10     6     5    1
    11     5     2    1
    12     2     3    1
    13     2     1    1
    14     1    19    1
    15    19    20    1
    16    20    21    1
    17    21    22    1
    18    22    23   ar
    19    23    24   ar
    20    24    25   ar
    21    25    26    1
    22    25    27   ar
    23    27    28    1
    24    27    29   ar
    25    19    30    1
    26    30    31    1
    27    31    32   ar
    28    32    33   ar
    29    33    34   ar
    30    34    35   ar
    31    35    36   ar
    32    10    11   ar
    33    11    12   ar
    34    12     7   ar
    35    29    22   ar
    36    36    31   ar
    37    13    14    1
    38     3     4    1
@<TRIPOS>MOLECULE
*****
 36 38 0 0 0
SMALL
GASTEIGER

@<TRIPOS>ATOM
      1 C         140.8648  143.6967  159.7502 C.3     1  UNL1        0.1058
      2 C         141.0255  145.1305  160.1606 C.3     1  UNL1        0.1700
      3 O         141.6680  146.1110  159.2247 O.3     1  UNL1       -0.3793
      4 H         141.9195  145.6580  158.4046 H       1  UNL1        0.2106
      5 C         140.5438  145.5838  161.5068 C.3     1  UNL1        0.2358
      6 O         139.1195  145.3463  161.9128 O.3     1  UNL1       -0.4728
      7 C         138.0360  141.6735  164.2763 C.ar    1  UNL1        0.0646
      8 C         137.5429  141.8320  162.8686 C.ar    1  UNL1        0.0190
      9 C         137.9040  143.0562  162.0808 C.ar    1  UNL1        0.0382
     10 C         138.7583  144.1220  162.7006 C.ar    1  UNL1        0.1388
     11 C         139.2514  143.9636  164.1083 C.ar    1  UNL1        0.0382
     12 C         138.8902  142.7393  164.8962 C.ar    1  UNL1        0.0190
     13 N         137.6748  140.4492  165.0642 N.pl3   1  UNL1       -0.2187
     14 H         136.8247  140.4157  165.5596 H       1  UNL1        0.1734
     15 C         139.5430  138.1028  165.1304 C.3     1  UNL1        0.1996
     16 S         138.6089  139.2761  165.0973 S.O2    1  UNL1        0.0558
     17 O         138.2562  138.9551  163.6751 O.2     1  UNL1       -0.1544
     18 O         138.9615  139.5970  166.5195 O.2     1  UNL1       -0.1544
     19 N         141.8959  142.6826  160.1481 N.3     1  UNL1       -0.2665
     20 C         141.5076  141.2432  160.3133 C.3     1  UNL1        0.0771
     21 C         140.7876  140.7980  161.5516 C.3     1  UNL1        0.0437
     22 C         141.5586  140.2159  162.6991 C.ar    1  UNL1       -0.0199
     23 C         142.2220  138.8783  162.5553 C.ar    1  UNL1       -0.0033
     24 C         142.9929  138.2963  163.7028 C.ar    1  UNL1        0.0119
     25 C         143.1005  139.0518  164.9941 C.ar    1  UNL1        0.0682
     26 CL        143.8715  138.4697  166.1417 Cl      1  UNL1       -0.0814
     27 C         142.4371  140.3894  165.1380 C.ar    1  UNL1        0.0679
     28 CL        142.5447  141.1450  166.4293 Cl      1  UNL1       -0.0814
     29 C         141.6662  140.9714  163.9905 C.ar    1  UNL1        0.0080
     30 C         143.3155  143.1079  160.3807 C.3     1  UNL1        0.0992
     31 C         143.9486  142.9044  161.7253 C.ar    1  UNL1       -0.0061
     32 C         144.8551  141.7321  161.9577 C.ar    1  UNL1       -0.0029
     33 C         145.4882  141.5286  163.3022 C.ar    1  UNL1       -0.0003
     34 C         145.2148  142.4975  164.4143 C.ar    1  UNL1       -0.0000
     35 C         144.3083  143.6697  164.1819 C.ar    1  UNL1       -0.0003
     36 C         143.6752  143.8732  162.8373 C.ar    1  UNL1       -0.0029
@<TRIPOS>BOND
     1    15    16    1
     2    16    17    2
     3    16    18    2
     4    16    13    1
     5    13     7    1
     6     7     8   ar
     7     8     9   ar
     8     9    10   ar
     9    10     6    1
    10     6     5    1
    11     5     2    1
    12     2     3    1
    13     2     1    1
    14     1    19    1
    15    19    20    1
    16    20    21    1
    17    21    22    1
    18    22    23   ar
    19    23    24   ar
    20    24    25   ar
    21    25    26    1
    22    25    27   ar
    23    27    28    1
    24    27    29   ar
    25    19    30    1
    26    30    31    1
    27    31    32   ar
    28    32    33   ar
    29    33    34   ar
    30    34    35   ar
    31    35    36   ar
    32    10    11   ar
    33    11    12   ar
    34    12     7   ar
    35    29    22   ar
    36    36    31   ar
    37    13    14    1
    38     3     4    1
@<TRIPOS>MOLECULE
*****
 36 38 0 0 0
SMALL
GASTEIGER

@<TRIPOS>ATOM
      1 C         140.2157  138.6300  162.1623 C.3     1  UNL1        0.1058
      2 C         141.3063  137.6699  162.5352 C.3     1  UNL1        0.1700
      3 O         142.1901  137.0889  161.4716 O.3     1  UNL1       -0.3793
      4 H         141.9241  137.4351  160.6054 H       1  UNL1        0.2106
      5 C         141.5129  137.2908  163.9717 C.3     1  UNL1        0.2358
      6 O         142.3400  138.1653  164.8667 O.3     1  UNL1       -0.4728
      7 C         140.3759  140.4887  168.1824 C.ar    1  UNL1        0.0646
      8 C         141.8315  140.1381  168.2725 C.ar    1  UNL1        0.0190
      9 C         142.4862  139.3636  167.1672 C.ar    1  UNL1        0.0382
     10 C         141.6853  138.9398  165.9719 C.ar    1  UNL1        0.1388
     11 C         140.2297  139.2904  165.8818 C.ar    1  UNL1        0.0382
     12 C         139.5750  140.0649  166.9871 C.ar    1  UNL1        0.0190
     13 N         139.7212  141.2632  169.2877 N.pl3   1  UNL1       -0.2187
     14 H         138.9230  140.9015  169.7363 H       1  UNL1        0.1734
     15 C         140.8441  143.9143  170.1309 C.3     1  UNL1        0.1996
     16 S         140.2826  142.5887  169.7093 S.O2    1  UNL1        0.0558
     17 O         140.2741  143.0467  168.2810 O.2     1  UNL1       -0.1544
     18 O         140.2912  142.1308  171.1376 O.2     1  UNL1       -0.1544
     19 N         140.5274  139.8252  161.3112 N.3     1  UNL1       -0.2665
     20 C         139.4820  140.3850  160.3927 C.3     1  UNL1        0.0771
     21 C         138.2061  140.9367  160.9563 C.3     1  UNL1        0.0437
     22 C         138.2505  141.9430  162.0678 C.ar    1  UNL1       -0.0199
     23 C         137.7700  141.5683  163.4384 C.ar    1  UNL1       -0.0033
     24 C         137.8144  142.5746  164.5499 C.ar    1  UNL1        0.0119
     25 C         138.3394  143.9556  164.2907 C.ar    1  UNL1        0.0682
     26 CL        138.3838  144.9620  165.4022 Cl      1  UNL1       -0.0814
     27 C         138.8199  144.3304  162.9201 C.ar    1  UNL1        0.0679
     28 CL        139.3448  145.7114  162.6609 Cl      1  UNL1       -0.0814
     29 C         138.7754  143.3241  161.8087 C.ar    1  UNL1        0.0080
     30 C         141.8846  140.4606  161.3786 C.3     1  UNL1        0.0992
     31 C         142.3749  141.0468  162.6693 C.ar    1  UNL1       -0.0061
     32 C         141.4566  141.8841  163.5095 C.ar    1  UNL1       -0.0029
     33 C         141.9469  142.4704  164.8002 C.ar    1  UNL1       -0.0003
     34 C         143.3555  142.2194  165.2507 C.ar    1  UNL1       -0.0000
     35 C         144.2737  141.3822  164.4105 C.ar    1  UNL1       -0.0003
     36 C         143.7834  140.7959  163.1199 C.ar    1  UNL1       -0.0029
@<TRIPOS>BOND
     1    15    16    1
     2    16    17    2
     3    16    18    2
     4    16    13    1
     5    13     7    1
     6     7     8   ar
     7     8     9   ar
     8     9    10   ar
     9    10     6    1
    10     6     5    1
    11     5     2    1
    12     2     3    1
    13     2     1    1
    14     1    19    1
    15    19    20    1
    16    20    21    1
    17    21    22    1
    18    22    23   ar
    19    23    24   ar
    20    24    25   ar
    21    25    26    1
    22    25    27   ar
    23    27    28    1
    24    27    29   ar
    25    19    30    1
    26    30    31    1
    27    31    32   ar
    28    32    33   ar
    29    33    34   ar
    30    34    35   ar
    31    35    36   ar
    32    10    11   ar
    33    11    12   ar
    34    12     7   ar
    35    29    22   ar
    36    36    31   ar
    37    13    14    1
    38     3     4    1
@<TRIPOS>MOLECULE
*****
 36 38 0 0 0
SMALL
GASTEIGER

@<TRIPOS>ATOM
      1 C         139.7359  144.1932  163.2528 C.3     1  UNL1        0.1058
      2 C         138.2661  143.9352  163.1002 C.3     1  UNL1        0.1700
      3 O         137.4005  144.9291  162.3842 O.3     1  UNL1       -0.3793
      4 H         137.9439  145.6749  162.0852 H       1  UNL1        0.2106
      5 C         137.6619  142.6832  163.6638 C.3     1  UNL1        0.2358
      6 O         138.5066  141.4562  163.8397 O.3     1  UNL1       -0.4728
      7 C         139.6924  140.1140  167.9679 C.ar    1  UNL1        0.0646
      8 C         140.3049  141.3486  167.3759 C.ar    1  UNL1        0.0190
      9 C         139.9096  141.7960  165.9998 C.ar    1  UNL1        0.0382
     10 C         138.9019  141.0088  165.2158 C.ar    1  UNL1        0.1388
     11 C         138.2894  139.7742  165.8079 C.ar    1  UNL1        0.0382
     12 C         138.6847  139.3268  167.1839 C.ar    1  UNL1        0.0190
     13 N         140.0877  139.6666  169.3440 N.pl3   1  UNL1       -0.2187
     14 H         140.0447  138.7124  169.5827 H       1  UNL1        0.1734
     15 C         141.0095  141.6792  171.3688 C.3     1  UNL1        0.1996
     16 S         140.5486  140.6729  170.3564 S.O2    1  UNL1        0.0558
     17 O         139.1335  141.1344  170.5418 O.2     1  UNL1       -0.1544
     18 O         141.9637  140.2113  170.1709 O.2     1  UNL1       -0.1544
     19 N         140.6867  143.7775  162.1696 N.3     1  UNL1       -0.2665
     20 C         140.2412  142.8143  161.1096 C.3     1  UNL1        0.0771
     21 C         141.0471  141.5802  160.8311 C.3     1  UNL1        0.0437
     22 C         140.9998  140.4226  161.7839 C.ar    1  UNL1       -0.0199
     23 C         140.0687  139.2755  161.5247 C.ar    1  UNL1       -0.0033
     24 C         140.0214  138.1180  162.4775 C.ar    1  UNL1        0.0119
     25 C         140.9051  138.1076  163.6895 C.ar    1  UNL1        0.0682
     26 CL        140.8577  136.9500  164.6423 Cl      1  UNL1       -0.0814
     27 C         141.8361  139.2547  163.9487 C.ar    1  UNL1        0.0679
     28 CL        142.7198  139.2443  165.1607 Cl      1  UNL1       -0.0814
     29 C         141.8834  140.4122  162.9959 C.ar    1  UNL1        0.0080
     30 C         142.0830  144.3253  162.1465 C.3     1  UNL1        0.0992
     31 C         143.1881  143.5914  162.8466 C.ar    1  UNL1       -0.0061
     32 C         144.2924  142.9617  162.0502 C.ar    1  UNL1       -0.0029
     33 C         145.3975  142.2278  162.7502 C.ar    1  UNL1       -0.0003
     34 C         145.3984  142.1237  164.2466 C.ar    1  UNL1       -0.0000
     35 C         144.2942  142.7534  165.0429 C.ar    1  UNL1       -0.0003
     36 C         143.1891  143.4872  164.3429 C.ar    1  UNL1       -0.0029
@<TRIPOS>BOND
     1    15    16    1
     2    16    17    2
     3    16    18    2
     4    16    13    1
     5    13     7    1
     6     7     8   ar
     7     8     9   ar
     8     9    10   ar
     9    10     6    1
    10     6     5    1
    11     5     2    1
    12     2     3    1
    13     2     1    1
    14     1    19    1
    15    19    20    1
    16    20    21    1
    17    21    22    1
    18    22    23   ar
    19    23    24   ar
    20    24    25   ar
    21    25    26    1
    22    25    27   ar
    23    27    28    1
    24    27    29   ar
    25    19    30    1
    26    30    31    1
    27    31    32   ar
    28    32    33   ar
    29    33    34   ar
    30    34    35   ar
    31    35    36   ar
    32    10    11   ar
    33    11    12   ar
    34    12     7   ar
    35    29    22   ar
    36    36    31   ar
    37    13    14    1
    38     3     4    1
