@<TRIPOS>MOLECULE
*****
 36 41 0 0 0
SMALL
GASTEIGER

@<TRIPOS>ATOM
      1 C         138.4937  138.9992  165.5753 C.ar    1  UNL1        0.0536
      2 C         138.8895  137.6897  164.9602 C.ar    1  UNL1        0.0042
      3 C         138.8968  137.5335  163.4683 C.ar    1  UNL1       -0.0041
      4 C         138.5082  138.6869  162.5916 C.ar    1  UNL1       -0.0208
      5 C         138.1124  139.9965  163.2068 C.ar    1  UNL1       -0.0041
      6 C         138.1051  140.1527  164.6987 C.ar    1  UNL1        0.0042
      7 C         142.0499  142.0120  169.3530 C.3     1  UNL1        0.0657
      8 C         140.8373  141.1334  169.4391 C.3     1  UNL1        0.0292
      9 C         139.6526  140.2415  169.2132 C.3     1  UNL1        0.0942
     10 N         139.5331  139.9943  167.7385 N.am    1  UNL1       -0.2761
     11 C         138.4865  139.1553  167.0672 C.2     1  UNL1        0.2490
     12 O         137.4327  138.4724  167.8876 O.2     1  UNL1       -0.2699
     13 C         140.6438  140.7335  167.0531 C.3     1  UNL1        0.0942
     14 C         141.4499  141.4375  168.1041 C.3     1  UNL1        0.0292
     15 C         146.7217  143.9716  170.8415 C.3     1  UNL1        0.1795
     16 N         145.2439  143.7518  170.7086 N.ar    1  UNL1       -0.1491
     17 N         144.1700  144.5326  171.4066 N.ar    1  UNL1       -0.0453
     18 N         142.8429  143.9759  170.9838 N.ar    1  UNL1       -0.1123
     19 C         143.0965  142.8511  170.0244 C.ar    1  UNL1        0.1830
     20 N         144.5803  142.7126  169.8544 N.ar    1  UNL1       -0.1342
     21 C         138.5155  138.5308  161.0998 C.3     1  UNL1        0.0420
     22 C         139.7624  138.8277  160.3207 C.3     1  UNL1        0.0585
     23 C         139.8891  138.8277  158.8261 C.3     1  UNL1        0.0175
     24 C         141.3065  139.1767  158.4810 C.3     1  UNL1        0.0199
     25 C         142.0558  139.3924  159.7624 C.3     1  UNL1        0.0855
     26 N         141.1015  139.1767  160.8994 N.3     1  UNL1       -0.2971
     27 H         141.0270  140.0287  161.4552 H       1  UNL1        0.1233
     28 C         143.5051  139.7593  159.8852 C.3     1  UNL1        0.1470
     29 O         144.3943  139.7176  158.6780 O.3     1  UNL1       -0.3787
     30 H         145.2932  139.9817  158.9292 H       1  UNL1        0.2108
     31 C         144.0650  140.1681  161.2154 C.ar    1  UNL1        0.0055
     32 C         144.5372  141.5755  161.4301 C.ar    1  UNL1       -0.0019
     33 C         145.0971  141.9841  162.7603 C.ar    1  UNL1       -0.0002
     34 C         145.1850  140.9853  163.8759 C.ar    1  UNL1       -0.0000
     35 C         144.7129  139.5778  163.6612 C.ar    1  UNL1       -0.0002
     36 C         144.1529  139.1692  162.3310 C.ar    1  UNL1       -0.0019
@<TRIPOS>BOND
     1    15    16    1
     2    16    17   ar
     3    17    18   ar
     4    18    19   ar
     5     7    19    1
     6     7     8    1
     7     8     9    1
     8     9    10    1
     9    10    11   am
    10    11    12    2
    11    11     1    1
    12     1     2   ar
    13     2     3   ar
    14     3     4   ar
    15     4    21    1
    16    22    21    1
    17    22    23    1
    18    23    24    1
    19    25    24    1
    20    25    28    1
    21    28    29    1
    22    28    31    1
    23    31    32   ar
    24    32    33   ar
    25    33    34   ar
    26    34    35   ar
    27    35    36   ar
    28    25    26    1
    29     4     5   ar
    30     5     6   ar
    31    10    13    1
    32    14    13    1
    33    19    20   ar
    34    20    16   ar
    35    14     7    1
    36    14     8    1
    37     6     1   ar
    38    26    22    1
    39    36    31   ar
    40    29    30    1
    41    26    27    1
@<TRIPOS>MOLECULE
*****
 36 41 0 0 0
SMALL
GASTEIGER

@<TRIPOS>ATOM
      1 C         138.5098  139.0569  165.4406 C.ar    1  UNL1        0.0536
      2 C         138.9992  137.8083  164.7687 C.ar    1  UNL1        0.0042
      3 C         138.9911  137.7095  163.2720 C.ar    1  UNL1       -0.0041
      4 C         138.4936  138.8593  162.4471 C.ar    1  UNL1       -0.0208
      5 C         138.0042  140.1080  163.1191 C.ar    1  UNL1       -0.0041
      6 C         138.0122  140.2068  164.6158 C.ar    1  UNL1        0.0042
      7 C         142.0543  141.9913  169.2903 C.3     1  UNL1        0.0657
      8 C         140.8596  141.0867  169.3565 C.3     1  UNL1        0.0292
      9 C         139.6894  140.1813  169.1100 C.3     1  UNL1        0.0942
     10 N         139.5565  139.9885  167.6284 N.am    1  UNL1       -0.2761
     11 C         138.5178  139.1557  166.9373 C.2     1  UNL1        0.2490
     12 O         137.4872  138.4217  167.7429 O.2     1  UNL1       -0.2699
     13 C         140.6446  140.7747  166.9592 C.3     1  UNL1        0.0942
     14 C         141.4500  141.4535  168.0272 C.3     1  UNL1        0.0292
     15 C         146.7077  143.9543  170.8308 C.3     1  UNL1        0.1795
     16 N         145.2320  143.7265  170.6895 N.ar    1  UNL1       -0.1491
     17 N         144.1506  144.4851  171.4003 N.ar    1  UNL1       -0.0453
     18 N         142.8286  143.9274  170.9627 N.ar    1  UNL1       -0.1123
     19 C         143.0930  142.8241  169.9814 C.ar    1  UNL1        0.1830
     20 N         144.5782  142.7000  169.8126 N.ar    1  UNL1       -0.1342
     21 C         138.4856  138.7605  160.9504 C.3     1  UNL1        0.0420
     22 C         139.7282  139.0751  160.1713 C.3     1  UNL1        0.0585
     23 C         140.5255  140.3428  160.2574 C.3     1  UNL1        0.0175
     24 C         141.6816  140.2284  159.3087 C.3     1  UNL1        0.0199
     25 C         141.5990  138.8902  158.6363 C.3     1  UNL1        0.0855
     26 N         140.3916  138.1774  159.1694 N.3     1  UNL1       -0.2971
     27 H         140.6742  137.3064  159.6187 H       1  UNL1        0.1233
     28 C         142.5556  138.3582  157.6107 C.3     1  UNL1        0.1470
     29 O         143.8483  139.0725  157.3490 O.3     1  UNL1       -0.3787
     30 H         144.3454  138.6005  156.6627 H       1  UNL1        0.2108
     31 C         142.2195  137.1117  156.8469 C.ar    1  UNL1        0.0055
     32 C         141.1191  137.1302  155.8278 C.ar    1  UNL1       -0.0019
     33 C         140.7830  135.8837  155.0641 C.ar    1  UNL1       -0.0002
     34 C         141.5474  134.6186  155.3195 C.ar    1  UNL1       -0.0000
     35 C         142.6479  134.6001  156.3386 C.ar    1  UNL1       -0.0002
     36 C         142.9839  135.8466  157.1024 C.ar    1  UNL1       -0.0019
@<TRIPOS>BOND
     1    15    16    1
     2    16    17   ar
     3    17    18   ar
     4    18    19   ar
     5     7    19    1
     6     7     8    1
     7     8     9    1
     8     9    10    1
     9    10    11   am
    10    11    12    2
    11    11     1    1
    12     1     2   ar
    13     2     3   ar
    14     3     4   ar
    15     4    21    1
    16    22    21    1
    17    22    23    1
    18    23    24    1
    19    25    24    1
    20    25    28    1
    21    28    29    1
    22    28    31    1
    23    31    32   ar
    24    32    33   ar
    25    33    34   ar
    26    34    35   ar
    27    35    36   ar
    28    25    26    1
    29     4     5   ar
    30     5     6   ar
    31    10    13    1
    32    14    13    1
    33    19    20   ar
    34    20    16   ar
    35    14     7    1
    36    14     8    1
    37     6     1   ar
    38    26    22    1
    39    36    31   ar
    40    29    30    1
    41    26    27    1
@<TRIPOS>MOLECULE
*****
 36 41 0 0 0
SMALL
GASTEIGER

@<TRIPOS>ATOM
      1 C         138.1365  139.3905  162.1836 C.ar    1  UNL1        0.0536
      2 C         138.6016  138.1384  162.8660 C.ar    1  UNL1        0.0042
      3 C         138.7295  138.1018  164.3601 C.ar    1  UNL1       -0.0041
      4 C         138.3923  139.3173  165.1718 C.ar    1  UNL1       -0.0208
      5 C         137.9271  140.5694  164.4893 C.ar    1  UNL1       -0.0041
      6 C         137.7992  140.6061  162.9952 C.ar    1  UNL1        0.0042
      7 C         142.1963  139.3905  157.7663 C.3     1  UNL1        0.0657
      8 C         140.7023  139.4241  157.8951 C.3     1  UNL1        0.0292
      9 C         139.2674  139.4494  158.3316 C.3     1  UNL1        0.0942
     10 N         139.2385  139.4164  159.8309 N.am    1  UNL1       -0.2761
     11 C         138.0085  139.4272  160.6895 C.2     1  UNL1        0.2490
     12 O         136.6507  139.4747  160.0540 O.2     1  UNL1       -0.2699
     13 C         140.6554  139.3708  160.3211 C.3     1  UNL1        0.0942
     14 C         141.5601  139.3756  159.1246 C.3     1  UNL1        0.0292
     15 C         146.4433  140.9725  155.0568 C.3     1  UNL1        0.1795
     16 N         145.3784  140.1069  155.6623 N.ar    1  UNL1       -0.1491
     17 N         145.2595  138.6193  155.5108 N.ar    1  UNL1       -0.0453
     18 N         144.0531  138.1699  156.2805 N.ar    1  UNL1       -0.1123
     19 C         143.4263  139.3797  156.9078 C.ar    1  UNL1        0.1830
     20 N         144.2454  140.5768  156.5257 N.ar    1  UNL1       -0.1342
     21 C         138.5202  139.2806  166.6659 C.3     1  UNL1        0.0420
     22 C         139.6156  140.0489  167.3439 C.3     1  UNL1        0.0585
     23 C         139.7000  140.3564  168.8096 C.3     1  UNL1        0.0175
     24 C         140.9555  141.1422  169.0468 C.3     1  UNL1        0.0199
     25 C         141.6470  141.3204  167.7278 C.3     1  UNL1        0.0855
     26 N         140.8189  140.6447  166.6753 N.3     1  UNL1       -0.2971
     27 H         141.3641  139.9097  166.2249 H       1  UNL1        0.1233
     28 C         142.9397  142.0468  167.5010 C.3     1  UNL1        0.1470
     29 O         143.6662  142.6643  168.6589 O.3     1  UNL1       -0.3787
     30 H         144.4771  143.0914  168.3412 H       1  UNL1        0.2108
     31 C         143.5058  142.1556  166.1162 C.ar    1  UNL1        0.0055
     32 C         143.7293  143.5054  165.5012 C.ar    1  UNL1       -0.0019
     33 C         144.2954  143.6141  164.1164 C.ar    1  UNL1       -0.0002
     34 C         144.6380  142.3732  163.3465 C.ar    1  UNL1       -0.0000
     35 C         144.4145  141.0234  163.9615 C.ar    1  UNL1       -0.0002
     36 C         143.8484  140.9147  165.3464 C.ar    1  UNL1       -0.0019
@<TRIPOS>BOND
     1    15    16    1
     2    16    17   ar
     3    17    18   ar
     4    18    19   ar
     5     7    19    1
     6     7     8    1
     7     8     9    1
     8     9    10    1
     9    10    11   am
    10    11    12    2
    11    11     1    1
    12     1     2   ar
    13     2     3   ar
    14     3     4   ar
    15     4    21    1
    16    22    21    1
    17    22    23    1
    18    23    24    1
    19    25    24    1
    20    25    28    1
    21    28    29    1
    22    28    31    1
    23    31    32   ar
    24    32    33   ar
    25    33    34   ar
    26    34    35   ar
    27    35    36   ar
    28    25    26    1
    29     4     5   ar
    30     5     6   ar
    31    10    13    1
    32    14    13    1
    33    19    20   ar
    34    20    16   ar
    35    14     7    1
    36    14     8    1
    37     6     1   ar
    38    26    22    1
    39    36    31   ar
    40    29    30    1
    41    26    27    1
@<TRIPOS>MOLECULE
*****
 36 41 0 0 0
SMALL
GASTEIGER

@<TRIPOS>ATOM
      1 C         139.3670  139.7792  167.9875 C.ar    1  UNL1        0.0536
      2 C         138.0806  139.1118  167.6007 C.ar    1  UNL1        0.0042
      3 C         137.9141  138.5464  166.2213 C.ar    1  UNL1       -0.0041
      4 C         139.0340  138.6485  165.2287 C.ar    1  UNL1       -0.0208
      5 C         140.3205  139.3160  165.6155 C.ar    1  UNL1       -0.0041
      6 C         140.4870  139.8813  166.9948 C.ar    1  UNL1        0.0042
      7 C         143.6194  143.1994  170.4803 C.3     1  UNL1        0.0657
      8 C         142.3299  142.5577  170.8991 C.3     1  UNL1        0.0292
      9 C         141.0340  141.8124  171.0219 C.3     1  UNL1        0.0942
     10 N         140.7336  141.1831  169.6939 N.am    1  UNL1       -0.2761
     11 C         139.5336  140.3446  169.3668 C.2     1  UNL1        0.2490
     12 O         138.5001  140.0715  170.4191 O.2     1  UNL1       -0.2699
     13 C         141.8439  141.5393  168.7503 C.3     1  UNL1        0.0942
     14 C         142.8305  142.3889  169.4951 C.3     1  UNL1        0.0292
     15 C         146.7099  146.9676  172.5126 C.3     1  UNL1        0.1795
     16 N         146.2400  145.7699  171.7416 N.ar    1  UNL1       -0.1491
     17 N         147.0923  144.8862  170.8798 N.ar    1  UNL1       -0.0453
     18 N         146.2143  143.8157  170.3024 N.ar    1  UNL1       -0.1123
     19 C         144.8195  144.0378  170.8074 C.ar    1  UNL1        0.1830
     20 N         144.8354  145.2456  171.6968 N.ar    1  UNL1       -0.1342
     21 C         138.8675  138.0831  163.8493 C.3     1  UNL1        0.0420
     22 C         138.6323  139.0005  162.6861 C.3     1  UNL1        0.0585
     23 C         137.9992  138.6232  161.3797 C.3     1  UNL1        0.0175
     24 C         137.9645  139.8457  160.5113 C.3     1  UNL1        0.0199
     25 C         138.5762  140.9786  161.2810 C.3     1  UNL1        0.0855
     26 N         138.9889  140.4562  162.6251 N.3     1  UNL1       -0.2971
     27 H         138.4967  140.9642  163.3600 H       1  UNL1        0.1233
     28 C         138.7454  142.3866  160.7923 C.3     1  UNL1        0.1470
     29 O         138.1291  142.8083  159.4914 O.3     1  UNL1       -0.3787
     30 H         138.3324  143.7420  159.3249 H       1  UNL1        0.2108
     31 C         139.5309  143.3731  161.6047 C.ar    1  UNL1        0.0055
     32 C         140.9652  143.6513  161.2649 C.ar    1  UNL1       -0.0019
     33 C         141.7507  144.6377  162.0773 C.ar    1  UNL1       -0.0002
     34 C         141.1019  145.3459  163.2295 C.ar    1  UNL1       -0.0000
     35 C         139.6676  145.0677  163.5693 C.ar    1  UNL1       -0.0002
     36 C         138.8822  144.0813  162.7569 C.ar    1  UNL1       -0.0019
@<TRIPOS>BOND
     1    15    16    1
     2    16    17   ar
     3    17    18   ar
     4    18    19   ar
     5     7    19    1
     6     7     8    1
     7     8     9    1
     8     9    10    1
     9    10    11   am
    10    11    12    2
    11    11     1    1
    12     1     2   ar
    13     2     3   ar
    14     3     4   ar
    15     4    21    1
    16    22    21    1
    17    22    23    1
    18    23    24    1
    19    25    24    1
    20    25    28    1
    21    28    29    1
    22    28    31    1
    23    31    32   ar
    24    32    33   ar
    25    33    34   ar
    26    34    35   ar
    27    35    36   ar
    28    25    26    1
    29     4     5   ar
    30     5     6   ar
    31    10    13    1
    32    14    13    1
    33    19    20   ar
    34    20    16   ar
    35    14     7    1
    36    14     8    1
    37     6     1   ar
    38    26    22    1
    39    36    31   ar
    40    29    30    1
    41    26    27    1
@<TRIPOS>MOLECULE
*****
 36 41 0 0 0
SMALL
GASTEIGER

@<TRIPOS>ATOM
      1 C         138.6333  139.3954  165.7110 C.ar    1  UNL1        0.0536
      2 C         139.1903  138.2379  164.9365 C.ar    1  UNL1        0.0042
      3 C         139.0884  138.2181  163.4401 C.ar    1  UNL1       -0.0041
      4 C         138.4294  139.3558  162.7181 C.ar    1  UNL1       -0.0208
      5 C         137.8723  140.5134  163.4926 C.ar    1  UNL1       -0.0041
      6 C         137.9743  140.5332  164.9890 C.ar    1  UNL1        0.0042
      7 C         142.3440  142.2221  169.4840 C.3     1  UNL1        0.0657
      8 C         141.1790  141.2817  169.5758 C.3     1  UNL1        0.0292
      9 C         140.0183  140.3577  169.3546 C.3     1  UNL1        0.0942
     10 N         139.7952  140.2397  167.8760 N.am    1  UNL1       -0.2761
     11 C         138.7353  139.4153  167.2074 C.2     1  UNL1        0.2490
     12 O         137.7774  138.6108  168.0351 O.2     1  UNL1       -0.2699
     13 C         140.8179  141.0907  167.1834 C.3     1  UNL1        0.0942
     14 C         141.6732  141.7347  168.2340 C.3     1  UNL1        0.0292
     15 C         147.0428  144.1756  170.8930 C.3     1  UNL1        0.1795
     16 N         145.5637  143.9444  170.8004 N.ar    1  UNL1       -0.1491
     17 N         144.5059  144.6857  171.5630 N.ar    1  UNL1       -0.0453
     18 N         143.1710  144.1307  171.1627 N.ar    1  UNL1       -0.1123
     19 C         143.4039  143.0465  170.1527 C.ar    1  UNL1        0.1830
     20 N         144.8825  142.9314  169.9288 N.ar    1  UNL1       -0.1342
     21 C         138.3274  139.3360  161.2217 C.3     1  UNL1        0.0420
     22 C         139.0075  140.3979  160.4095 C.3     1  UNL1        0.0585
     23 C         139.1808  140.3927  158.9196 C.3     1  UNL1        0.0175
     24 C         139.9141  141.6431  158.5339 C.3     1  UNL1        0.0199
     25 C         140.1941  142.4211  159.7854 C.3     1  UNL1        0.0855
     26 N         139.6338  141.6515  160.9446 N.3     1  UNL1       -0.2971
     27 H         138.9299  142.2124  161.4247 H       1  UNL1        0.1233
     28 C         140.9089  143.7375  159.8639 C.3     1  UNL1        0.1470
     29 O         140.8830  144.6759  158.6941 O.3     1  UNL1       -0.3787
     30 H         141.3897  145.4746  158.9090 H       1  UNL1        0.2108
     31 C         141.6496  144.1154  161.1123 C.ar    1  UNL1        0.0055
     32 C         140.9927  144.9904  162.1384 C.ar    1  UNL1       -0.0019
     33 C         141.7335  145.3682  163.3868 C.ar    1  UNL1       -0.0002
     34 C         143.1311  144.8710  163.6092 C.ar    1  UNL1       -0.0000
     35 C         143.7879  143.9960  162.5831 C.ar    1  UNL1       -0.0002
     36 C         143.0472  143.6181  161.3347 C.ar    1  UNL1       -0.0019
@<TRIPOS>BOND
     1    15    16    1
     2    16    17   ar
     3    17    18   ar
     4    18    19   ar
     5     7    19    1
     6     7     8    1
     7     8     9    1
     8     9    10    1
     9    10    11   am
    10    11    12    2
    11    11     1    1
    12     1     2   ar
    13     2     3   ar
    14     3     4   ar
    15     4    21    1
    16    22    21    1
    17    22    23    1
    18    23    24    1
    19    25    24    1
    20    25    28    1
    21    28    29    1
    22    28    31    1
    23    31    32   ar
    24    32    33   ar
    25    33    34   ar
    26    34    35   ar
    27    35    36   ar
    28    25    26    1
    29     4     5   ar
    30     5     6   ar
    31    10    13    1
    32    14    13    1
    33    19    20   ar
    34    20    16   ar
    35    14     7    1
    36    14     8    1
    37     6     1   ar
    38    26    22    1
    39    36    31   ar
    40    29    30    1
    41    26    27    1
@<TRIPOS>MOLECULE
*****
 36 41 0 0 0
SMALL
GASTEIGER

@<TRIPOS>ATOM
      1 C         139.1257  139.7425  167.8969 C.ar    1  UNL1        0.0536
      2 C         138.0378  138.7446  167.6313 C.ar    1  UNL1        0.0042
      3 C         137.9004  138.1293  166.2702 C.ar    1  UNL1       -0.0041
      4 C         138.8509  138.5119  165.1747 C.ar    1  UNL1       -0.0208
      5 C         139.9389  139.5098  165.4404 C.ar    1  UNL1       -0.0041
      6 C         140.0763  140.1251  166.8014 C.ar    1  UNL1        0.0042
      7 C         143.4224  143.0846  170.4196 C.3     1  UNL1        0.0657
      8 C         142.0912  142.5151  170.8114 C.3     1  UNL1        0.0292
      9 C         140.7605  141.8301  170.9118 C.3     1  UNL1        0.0942
     10 N         140.4847  141.1586  169.5991 N.am    1  UNL1       -0.2761
     11 C         139.2632  140.3578  169.2580 C.2     1  UNL1        0.2490
     12 O         138.1790  140.1722  170.2778 O.2     1  UNL1       -0.2699
     13 C         141.6449  141.4286  168.6875 C.3     1  UNL1        0.0942
     14 C         142.6378  142.2670  169.4368 C.3     1  UNL1        0.0292
     15 C         146.6023  146.7629  172.4784 C.3     1  UNL1        0.1795
     16 N         146.1056  145.5762  171.7071 N.ar    1  UNL1       -0.1491
     17 N         146.9420  144.6594  170.8644 N.ar    1  UNL1       -0.0453
     18 N         146.0386  143.6145  170.2795 N.ar    1  UNL1       -0.1123
     19 C         144.6440  143.8854  170.7607 C.ar    1  UNL1        0.1830
     20 N         144.6854  145.0978  171.6430 N.ar    1  UNL1       -0.1342
     21 C         138.7135  137.8966  163.8136 C.3     1  UNL1        0.0420
     22 C         139.6883  138.2489  162.7294 C.3     1  UNL1        0.0585
     23 C         139.3429  138.5910  161.3103 C.3     1  UNL1        0.0175
     24 C         140.6207  138.8746  160.5777 C.3     1  UNL1        0.0199
     25 C         141.7558  138.7078  161.5439 C.3     1  UNL1        0.0855
     26 N         141.1796  138.3212  162.8738 N.3     1  UNL1       -0.2971
     27 H         141.4260  139.0204  163.5743 H       1  UNL1        0.1233
     28 C         143.2116  138.8949  161.2347 C.3     1  UNL1        0.1470
     29 O         143.8424  138.1344  160.1061 O.3     1  UNL1       -0.3787
     30 H         144.7813  138.3700  160.0425 H       1  UNL1        0.2108
     31 C         144.0366  139.8426  162.0541 C.ar    1  UNL1        0.0055
     32 C         144.3322  141.2194  161.5373 C.ar    1  UNL1       -0.0019
     33 C         145.1572  142.1670  162.3568 C.ar    1  UNL1       -0.0002
     34 C         145.6866  141.7377  163.6930 C.ar    1  UNL1       -0.0000
     35 C         145.3910  140.3610  164.2098 C.ar    1  UNL1       -0.0002
     36 C         144.5661  139.4134  163.3903 C.ar    1  UNL1       -0.0019
@<TRIPOS>BOND
     1    15    16    1
     2    16    17   ar
     3    17    18   ar
     4    18    19   ar
     5     7    19    1
     6     7     8    1
     7     8     9    1
     8     9    10    1
     9    10    11   am
    10    11    12    2
    11    11     1    1
    12     1     2   ar
    13     2     3   ar
    14     3     4   ar
    15     4    21    1
    16    22    21    1
    17    22    23    1
    18    23    24    1
    19    25    24    1
    20    25    28    1
    21    28    29    1
    22    28    31    1
    23    31    32   ar
    24    32    33   ar
    25    33    34   ar
    26    34    35   ar
    27    35    36   ar
    28    25    26    1
    29     4     5   ar
    30     5     6   ar
    31    10    13    1
    32    14    13    1
    33    19    20   ar
    34    20    16   ar
    35    14     7    1
    36    14     8    1
    37     6     1   ar
    38    26    22    1
    39    36    31   ar
    40    29    30    1
    41    26    27    1
@<TRIPOS>MOLECULE
*****
 36 41 0 0 0
SMALL
GASTEIGER

@<TRIPOS>ATOM
      1 C         143.5406  142.3486  158.5304 C.ar    1  UNL1        0.0536
      2 C         142.3573  143.2656  158.4361 C.ar    1  UNL1        0.0042
      3 C         141.8552  143.9704  159.6613 C.ar    1  UNL1       -0.0041
      4 C         142.5363  143.7583  160.9808 C.ar    1  UNL1       -0.0208
      5 C         143.7197  142.8412  161.0750 C.ar    1  UNL1       -0.0041
      6 C         144.2219  142.1364  159.8498 C.ar    1  UNL1        0.0042
      7 C         142.9060  136.7233  156.5435 C.3     1  UNL1        0.0657
      8 C         143.5815  137.9851  156.0945 C.3     1  UNL1        0.0292
      9 C         144.1378  139.3658  155.9099 C.3     1  UNL1        0.0942
     10 N         143.7089  140.1987  157.0815 N.am    1  UNL1       -0.2761
     11 C         144.0428  141.6438  157.3052 C.2     1  UNL1        0.2490
     12 O         144.8788  142.3842  156.3037 O.2     1  UNL1       -0.2699
     13 C         142.8876  139.3327  157.9900 C.3     1  UNL1        0.0942
     14 C         142.8089  137.9646  157.3800 C.3     1  UNL1        0.0292
     15 C         142.9756  131.4511  156.8261 C.3     1  UNL1        0.1795
     16 N         142.6042  132.8547  156.4497 N.ar    1  UNL1       -0.1491
     17 N         141.5126  133.2538  155.5013 N.ar    1  UNL1       -0.0453
     18 N         141.4929  134.7515  155.4210 N.ar    1  UNL1       -0.1123
     19 C         142.5722  135.2781  156.3198 C.ar    1  UNL1        0.1830
     20 N         143.2589  134.1059  156.9555 N.ar    1  UNL1       -0.1342
     21 C         142.0342  144.4631  162.2060 C.3     1  UNL1        0.0420
     22 C         140.8725  143.9017  162.9710 C.3     1  UNL1        0.0585
     23 C         140.3236  144.4381  164.2598 C.3     1  UNL1        0.0175
     24 C         139.1677  143.5733  164.6669 C.3     1  UNL1        0.0199
     25 C         139.0021  142.5023  163.6298 C.3     1  UNL1        0.0855
     26 N         140.0558  142.7053  162.5816 N.3     1  UNL1       -0.2971
     27 H         139.6161  142.8663  161.6755 H       1  UNL1        0.1233
     28 C         137.9650  141.4187  163.6391 C.3     1  UNL1        0.1470
     29 O         136.5988  141.6831  163.0792 O.3     1  UNL1       -0.3787
     30 H         136.0551  140.8841  163.1622 H       1  UNL1        0.2108
     31 C         138.2942  140.0704  164.2084 C.ar    1  UNL1        0.0055
     32 C         138.8077  138.9828  163.3121 C.ar    1  UNL1       -0.0019
     33 C         139.1368  137.6347  163.8815 C.ar    1  UNL1       -0.0002
     34 C         138.9525  137.3742  165.3471 C.ar    1  UNL1       -0.0000
     35 C         138.4390  138.4618  166.2434 C.ar    1  UNL1       -0.0002
     36 C         138.1099  139.8099  165.6741 C.ar    1  UNL1       -0.0019
@<TRIPOS>BOND
     1    15    16    1
     2    16    17   ar
     3    17    18   ar
     4    18    19   ar
     5     7    19    1
     6     7     8    1
     7     8     9    1
     8     9    10    1
     9    10    11   am
    10    11    12    2
    11    11     1    1
    12     1     2   ar
    13     2     3   ar
    14     3     4   ar
    15     4    21    1
    16    22    21    1
    17    22    23    1
    18    23    24    1
    19    25    24    1
    20    25    28    1
    21    28    29    1
    22    28    31    1
    23    31    32   ar
    24    32    33   ar
    25    33    34   ar
    26    34    35   ar
    27    35    36   ar
    28    25    26    1
    29     4     5   ar
    30     5     6   ar
    31    10    13    1
    32    14    13    1
    33    19    20   ar
    34    20    16   ar
    35    14     7    1
    36    14     8    1
    37     6     1   ar
    38    26    22    1
    39    36    31   ar
    40    29    30    1
    41    26    27    1
@<TRIPOS>MOLECULE
*****
 36 41 0 0 0
SMALL
GASTEIGER

@<TRIPOS>ATOM
      1 C         143.5485  138.8579  165.0832 C.ar    1  UNL1        0.0536
      2 C         142.4959  138.2853  164.1810 C.ar    1  UNL1        0.0042
      3 C         142.6154  138.4435  162.6942 C.ar    1  UNL1       -0.0041
      4 C         143.7876  139.1744  162.1095 C.ar    1  UNL1       -0.0208
      5 C         144.8403  139.7470  163.0117 C.ar    1  UNL1       -0.0041
      6 C         144.7208  139.5888  164.4986 C.ar    1  UNL1        0.0042
      7 C         140.8635  142.1640  169.3087 C.3     1  UNL1        0.0657
      8 C         141.6646  140.8978  169.2383 C.3     1  UNL1        0.0292
      9 C         142.4730  139.6922  168.8604 C.3     1  UNL1        0.0942
     10 N         142.6756  139.7172  167.3744 N.am    1  UNL1       -0.2761
     11 C         143.4291  138.6997  166.5700 C.2     1  UNL1        0.2490
     12 O         144.0631  137.5240  167.2525 O.2     1  UNL1       -0.2699
     13 C         141.9923  140.9383  166.8339 C.3     1  UNL1        0.0942
     14 C         141.3675  141.6679  167.9859 C.3     1  UNL1        0.0292
     15 C         139.1550  146.7677  171.2497 C.3     1  UNL1        0.1795
     16 N         139.3247  145.2976  171.0053 N.ar    1  UNL1       -0.1491
     17 N         138.5761  144.1967  171.6965 N.ar    1  UNL1       -0.0453
     18 N         139.0615  142.8889  171.1451 N.ar    1  UNL1       -0.1123
     19 C         140.1100  143.1815  170.1131 C.ar    1  UNL1        0.1830
     20 N         140.2726  144.6701  170.0267 N.ar    1  UNL1       -0.1342
     21 C         143.9070  139.3326  160.6226 C.3     1  UNL1        0.0420
     22 C         143.5725  140.6454  159.9788 C.3     1  UNL1        0.0585
     23 C         143.9361  141.0616  158.5844 C.3     1  UNL1        0.0175
     24 C         143.4040  142.4459  158.3602 C.3     1  UNL1        0.0199
     25 C         142.7116  142.8855  159.6160 C.3     1  UNL1        0.0855
     26 N         142.8157  141.7727  160.6165 N.3     1  UNL1       -0.2971
     27 H         141.8827  141.4570  160.8814 H       1  UNL1        0.1233
     28 C         142.0339  144.2059  159.8334 C.3     1  UNL1        0.1470
     29 O         142.0650  145.2509  158.7578 O.3     1  UNL1       -0.3787
     30 H         141.5837  146.0379  159.0576 H       1  UNL1        0.2108
     31 C         141.3252  144.4813  161.1264 C.ar    1  UNL1        0.0055
     32 C         139.8261  144.4764  161.1759 C.ar    1  UNL1       -0.0019
     33 C         139.1175  144.7518  162.4690 C.ar    1  UNL1       -0.0002
     34 C         139.9080  145.0322  163.7126 C.ar    1  UNL1       -0.0000
     35 C         141.4072  145.0370  163.6630 C.ar    1  UNL1       -0.0002
     36 C         142.1158  144.7616  162.3700 C.ar    1  UNL1       -0.0019
@<TRIPOS>BOND
     1    15    16    1
     2    16    17   ar
     3    17    18   ar
     4    18    19   ar
     5     7    19    1
     6     7     8    1
     7     8     9    1
     8     9    10    1
     9    10    11   am
    10    11    12    2
    11    11     1    1
    12     1     2   ar
    13     2     3   ar
    14     3     4   ar
    15     4    21    1
    16    22    21    1
    17    22    23    1
    18    23    24    1
    19    25    24    1
    20    25    28    1
    21    28    29    1
    22    28    31    1
    23    31    32   ar
    24    32    33   ar
    25    33    34   ar
    26    34    35   ar
    27    35    36   ar
    28    25    26    1
    29     4     5   ar
    30     5     6   ar
    31    10    13    1
    32    14    13    1
    33    19    20   ar
    34    20    16   ar
    35    14     7    1
    36    14     8    1
    37     6     1   ar
    38    26    22    1
    39    36    31   ar
    40    29    30    1
    41    26    27    1
@<TRIPOS>MOLECULE
*****
 36 41 0 0 0
SMALL
GASTEIGER

@<TRIPOS>ATOM
      1 C         143.6712  139.8289  159.8467 C.ar    1  UNL1        0.0536
      2 C         144.0602  141.0617  160.6074 C.ar    1  UNL1        0.0042
      3 C         144.3558  140.9753  162.0754 C.ar    1  UNL1       -0.0041
      4 C         144.2623  139.6559  162.7829 C.ar    1  UNL1       -0.0208
      5 C         143.8733  138.4229  162.0222 C.ar    1  UNL1       -0.0041
      6 C         143.5778  138.5094  160.5541 C.ar    1  UNL1        0.0042
      7 C         138.5957  140.7411  156.7805 C.3     1  UNL1        0.0657
      8 C         140.0461  140.5109  156.4749 C.3     1  UNL1        0.0292
      9 C         141.5262  140.2679  156.4812 C.3     1  UNL1        0.0942
     10 N         141.9718  140.1578  157.9093 N.am    1  UNL1       -0.2761
     11 C         143.3757  139.9153  158.3787 C.2     1  UNL1        0.2490
     12 O         144.4840  139.7593  157.3801 O.2     1  UNL1       -0.2699
     13 C         140.7670  140.3329  158.7856 C.3     1  UNL1        0.0942
     14 C         139.5768  140.5511  157.8991 C.3     1  UNL1        0.0292
     15 C         133.3616  140.3664  156.1933 C.3     1  UNL1        0.1795
     16 N         134.7859  140.8114  156.0412 N.ar    1  UNL1       -0.1491
     17 N         135.2771  141.9022  155.1362 N.ar    1  UNL1       -0.0453
     18 N         136.7639  142.0087  155.3031 N.ar    1  UNL1       -0.1123
     19 C         137.1918  140.9836  156.3111 C.ar    1  UNL1        0.1830
     20 N         135.9694  140.2437  156.7672 N.ar    1  UNL1       -0.1342
     21 C         144.5579  139.5694  164.2509 C.3     1  UNL1        0.0420
     22 C         143.4924  139.9062  165.2516 C.3     1  UNL1        0.0585
     23 C         143.0650  139.0495  166.4063 C.3     1  UNL1        0.0175
     24 C         141.9757  139.7726  167.1416 C.3     1  UNL1        0.0199
     25 C         141.7299  141.0761  166.4413 C.3     1  UNL1        0.0855
     26 N         142.6673  141.1587  165.2732 N.3     1  UNL1       -0.2971
     27 H         143.2749  141.9717  165.3738 H       1  UNL1        0.1233
     28 C         140.7235  142.1147  166.8393 C.3     1  UNL1        0.1470
     29 O         140.7154  142.6538  168.2390 O.3     1  UNL1       -0.3787
     30 H         140.0079  143.3114  168.3281 H       1  UNL1        0.2108
     31 C         139.7251  142.6142  165.8374 C.ar    1  UNL1        0.0055
     32 C         138.8402  141.6439  165.1125 C.ar    1  UNL1       -0.0019
     33 C         137.8418  142.1435  164.1106 C.ar    1  UNL1       -0.0002
     34 C         137.7283  143.6133  163.8337 C.ar    1  UNL1       -0.0000
     35 C         138.6132  144.5835  164.5586 C.ar    1  UNL1       -0.0002
     36 C         139.6116  144.0840  165.5604 C.ar    1  UNL1       -0.0019
@<TRIPOS>BOND
     1    15    16    1
     2    16    17   ar
     3    17    18   ar
     4    18    19   ar
     5     7    19    1
     6     7     8    1
     7     8     9    1
     8     9    10    1
     9    10    11   am
    10    11    12    2
    11    11     1    1
    12     1     2   ar
    13     2     3   ar
    14     3     4   ar
    15     4    21    1
    16    22    21    1
    17    22    23    1
    18    23    24    1
    19    25    24    1
    20    25    28    1
    21    28    29    1
    22    28    31    1
    23    31    32   ar
    24    32    33   ar
    25    33    34   ar
    26    34    35   ar
    27    35    36   ar
    28    25    26    1
    29     4     5   ar
    30     5     6   ar
    31    10    13    1
    32    14    13    1
    33    19    20   ar
    34    20    16   ar
    35    14     7    1
    36    14     8    1
    37     6     1   ar
    38    26    22    1
    39    36    31   ar
    40    29    30    1
    41    26    27    1
