@<TRIPOS>MOLECULE
*****
 34 38 0 0 0
SMALL
GASTEIGER

@<TRIPOS>ATOM
      1 C         139.9720  139.5479  162.9135 C.ar    1  UNL1        0.0878
      2 C         138.8449  138.7333  163.4757 C.ar    1  UNL1        0.1543
      3 F         137.9965  137.8970  162.5642 F       1  UNL1       -0.2028
      4 C         138.5661  138.7551  164.9494 C.ar    1  UNL1        0.0356
      5 C         139.4145  139.5914  165.8609 C.ar    1  UNL1        0.0580
      6 C         139.1357  139.6132  167.3346 C.ar    1  UNL1        0.1996
      7 O         138.0086  138.7987  167.8968 O.2     1  UNL1       -0.2864
      8 C         139.9841  140.4495  168.2461 C.ar    1  UNL1        0.0701
      9 C         141.1113  141.2640  167.6839 C.ar    1  UNL1        0.0801
     10 N         141.3900  141.2422  166.2102 N.ar    1  UNL1       -0.3270
     11 C         140.5417  140.4059  165.2987 C.ar    1  UNL1        0.0750
     12 C         140.8204  140.3842  163.8250 C.ar    1  UNL1        0.0890
     13 CL        141.9476  141.1987  163.2628 Cl      1  UNL1       -0.0794
     14 C         141.0055  138.8207  159.2435 C.3     1  UNL1        0.0930
     15 C         140.3543  140.1644  159.1005 C.3     1  UNL1        0.0427
     16 C         139.8879  140.6003  160.4578 C.3     1  UNL1        0.0927
     17 N         140.2508  139.5261  161.4398 N.pl3   1  UNL1       -0.3033
     18 C         140.9415  138.4262  160.6893 C.3     1  UNL1        0.1104
     19 O         139.2758  137.7709  157.0285 O.2     1  UNL1       -0.2729
     20 C         140.7490  137.4884  157.0278 C.2     1  UNL1        0.2493
     21 N         141.6138  138.0133  158.1354 N.am    1  UNL1       -0.3025
     22 H         142.5807  137.8279  158.1349 H       1  UNL1        0.1495
     23 C         141.3573  136.6809  155.9197 C.3     1  UNL1        0.2355
     24 N         142.0177  135.3687  156.2231 N.ar    1  UNL1       -0.1413
     25 N         143.1409  135.1504  157.1929 N.ar    1  UNL1       -0.1259
     26 C         143.4882  133.6912  157.1791 C.ar    1  UNL1        0.2448
     27 N         142.5796  133.0078  156.2008 N.ar    1  UNL1       -0.1044
     28 N         141.6707  134.0445  155.6099 N.ar    1  UNL1       -0.0445
     29 C         139.7054  140.4713  169.7198 C.2     1  UNL1        0.0774
     30 O         140.2577  139.3925  170.6036 O.co2   1  UNL1       -0.5444
     31 O         138.8743  141.5719  170.3098 O.co2   1  UNL1       -0.5444
     32 C         142.5172  142.0568  165.6480 C.3     1  UNL1        0.0857
     33 C         143.9643  142.1900  165.2765 C.3     1  UNL1        0.0245
     34 C         143.0224  143.3343  165.0458 C.3     1  UNL1        0.0245
@<TRIPOS>UNITY_ATOM_ATTR
30 1
charge -1
@<TRIPOS>BOND
     1    19    20    2
     2    20    23    1
     3    23    24    1
     4    24    25   ar
     5    25    26   ar
     6    26    27   ar
     7    27    28   ar
     8    20    21   am
     9    21    14    1
    10    14    15    1
    11    15    16    1
    12    16    17    1
    13    17     1    1
    14     1     2   ar
    15     2     3    1
    16     2     4   ar
    17     4     5   ar
    18     5     6   ar
    19     6     7    2
    20     6     8   ar
    21     8    29    1
    22    29    30   ar
    23    29    31   ar
    24     8     9   ar
    25     9    10   ar
    26    10    32    1
    27    32    33    1
    28    33    34    1
    29    10    11   ar
    30    11    12   ar
    31    12    13    1
    32    17    18    1
    33    28    24   ar
    34    18    14    1
    35    12     1   ar
    36    11     5   ar
    37    34    32    1
    38    21    22    1
@<TRIPOS>MOLECULE
*****
 34 38 0 0 0
SMALL
GASTEIGER

@<TRIPOS>ATOM
      1 C         139.2818  139.7425  163.7765 C.ar    1  UNL1        0.0878
      2 C         138.8577  138.7207  164.7894 C.ar    1  UNL1        0.1543
      3 F         138.2925  137.4067  164.3379 F       1  UNL1       -0.2028
      4 C         138.9988  139.0129  166.2539 C.ar    1  UNL1        0.0356
      5 C         139.5641  140.3269  166.7054 C.ar    1  UNL1        0.0580
      6 C         139.7052  140.6191  168.1700 C.ar    1  UNL1        0.1996
      7 O         139.2811  139.5973  169.1829 O.2     1  UNL1       -0.2864
      8 C         140.2704  141.9331  168.6215 C.ar    1  UNL1        0.0701
      9 C         140.6945  142.9550  167.6085 C.ar    1  UNL1        0.0801
     10 N         140.5534  142.6628  166.1441 N.ar    1  UNL1       -0.3270
     11 C         139.9882  141.3487  165.6925 C.ar    1  UNL1        0.0750
     12 C         139.8471  141.0565  164.2281 C.ar    1  UNL1        0.0890
     13 CL        140.2712  142.0783  163.2151 Cl      1  UNL1       -0.0794
     14 C         138.4277  139.5599  159.9946 C.3     1  UNL1        0.0930
     15 C         139.4194  138.4416  160.1222 C.3     1  UNL1        0.0427
     16 C         139.8600  138.3739  161.5544 C.3     1  UNL1        0.0927
     17 N         139.1407  139.4503  162.3120 N.pl3   1  UNL1       -0.3033
     18 C         138.2556  140.1833  161.3480 C.3     1  UNL1        0.1104
     19 O         139.0020  142.2460  158.7884 O.2     1  UNL1       -0.2729
     20 C         138.0179  141.3239  158.1317 C.2     1  UNL1        0.2493
     21 N         137.7307  139.9808  158.7349 N.am    1  UNL1       -0.3025
     22 H         137.0848  139.3756  158.3039 H       1  UNL1        0.1495
     23 C         137.3208  141.7448  156.8720 C.3     1  UNL1        0.2355
     24 N         136.3438  140.8188  156.2101 N.ar    1  UNL1       -0.1413
     25 N         136.3697  140.3907  154.7728 N.ar    1  UNL1       -0.1259
     26 C         135.2113  139.4657  154.5438 C.ar    1  UNL1        0.2448
     27 N         134.4695  139.3222  155.8395 N.ar    1  UNL1       -0.1044
     28 N         135.1694  140.1584  156.8694 N.ar    1  UNL1       -0.0445
     29 C         140.4115  142.2254  170.0860 C.2     1  UNL1        0.0774
     30 O         139.6148  143.3325  170.7100 O.co2   1  UNL1       -0.5444
     31 O         141.3493  141.4104  170.9265 O.co2   1  UNL1       -0.5444
     32 C         140.9775  143.6845  165.1312 C.3     1  UNL1        0.0857
     33 C         142.0471  144.3080  164.2843 C.3     1  UNL1        0.0245
     34 C         140.6426  144.8309  164.2237 C.3     1  UNL1        0.0245
@<TRIPOS>UNITY_ATOM_ATTR
30 1
charge -1
@<TRIPOS>BOND
     1    19    20    2
     2    20    23    1
     3    23    24    1
     4    24    25   ar
     5    25    26   ar
     6    26    27   ar
     7    27    28   ar
     8    20    21   am
     9    21    14    1
    10    14    15    1
    11    15    16    1
    12    16    17    1
    13    17     1    1
    14     1     2   ar
    15     2     3    1
    16     2     4   ar
    17     4     5   ar
    18     5     6   ar
    19     6     7    2
    20     6     8   ar
    21     8    29    1
    22    29    30   ar
    23    29    31   ar
    24     8     9   ar
    25     9    10   ar
    26    10    32    1
    27    32    33    1
    28    33    34    1
    29    10    11   ar
    30    11    12   ar
    31    12    13    1
    32    17    18    1
    33    28    24   ar
    34    18    14    1
    35    12     1   ar
    36    11     5   ar
    37    34    32    1
    38    21    22    1
@<TRIPOS>MOLECULE
*****
 34 38 0 0 0
SMALL
GASTEIGER

@<TRIPOS>ATOM
      1 C         142.1152  142.4241  163.8739 C.ar    1  UNL1        0.0878
      2 C         143.2077  143.2014  164.5462 C.ar    1  UNL1        0.1543
      3 F         144.0278  144.1786  163.7570 F       1  UNL1       -0.2028
      4 C         143.4802  143.0016  166.0076 C.ar    1  UNL1        0.0356
      5 C         142.6602  142.0245  166.7967 C.ar    1  UNL1        0.0580
      6 C         142.9327  141.8247  168.2582 C.ar    1  UNL1        0.1996
      7 O         144.0253  142.6020  168.9305 O.2     1  UNL1       -0.2864
      8 C         142.1127  140.8475  169.0473 C.ar    1  UNL1        0.0701
      9 C         141.0201  140.0702  168.3749 C.ar    1  UNL1        0.0801
     10 N         140.7476  140.2700  166.9135 N.ar    1  UNL1       -0.3270
     11 C         141.5676  141.2471  166.1244 C.ar    1  UNL1        0.0750
     12 C         141.2951  141.4469  164.6630 C.ar    1  UNL1        0.0890
     13 CL        140.2025  140.6696  163.9906 Cl      1  UNL1       -0.0794
     14 C         140.9954  143.5260  160.3245 C.3     1  UNL1        0.0930
     15 C         141.8510  142.3367  160.0024 C.3     1  UNL1        0.0427
     16 C         142.3746  141.7793  161.2927 C.3     1  UNL1        0.0927
     17 N         141.8426  142.6239  162.4124 N.pl3   1  UNL1       -0.3033
     18 C         140.9902  143.7034  161.8140 C.3     1  UNL1        0.1104
     19 O         142.5478  145.2346  158.4086 O.2     1  UNL1       -0.2729
     20 C         141.0481  145.2409  158.3736 C.2     1  UNL1        0.2493
     21 N         140.2720  144.3866  159.3316 N.am    1  UNL1       -0.3025
     22 H         139.2877  144.3908  159.3086 H       1  UNL1        0.1495
     23 C         140.3247  146.1015  157.3806 C.3     1  UNL1        0.2355
     24 N         139.2785  145.5008  156.4892 N.ar    1  UNL1       -0.1413
     25 N         138.8818  144.0549  156.4455 N.ar    1  UNL1       -0.1259
     26 C         137.8035  143.9011  155.4142 C.ar    1  UNL1        0.2448
     27 N         137.5337  145.2519  154.8206 N.ar    1  UNL1       -0.1044
     28 N         138.4453  146.2406  155.4849 N.ar    1  UNL1       -0.0445
     29 C         142.3852  140.6477  170.5087 C.2     1  UNL1        0.0774
     30 O         141.6066  141.4232  171.5297 O.co2   1  UNL1       -0.5444
     31 O         143.4363  139.6724  170.9492 O.co2   1  UNL1       -0.5444
     32 C         139.6550  139.4926  166.2412 C.3     1  UNL1        0.0857
     33 C         139.2128  138.3181  165.4197 C.3     1  UNL1        0.0245
     34 C         138.2050  139.3207  165.8982 C.3     1  UNL1        0.0245
@<TRIPOS>UNITY_ATOM_ATTR
30 1
charge -1
@<TRIPOS>BOND
     1    19    20    2
     2    20    23    1
     3    23    24    1
     4    24    25   ar
     5    25    26   ar
     6    26    27   ar
     7    27    28   ar
     8    20    21   am
     9    21    14    1
    10    14    15    1
    11    15    16    1
    12    16    17    1
    13    17     1    1
    14     1     2   ar
    15     2     3    1
    16     2     4   ar
    17     4     5   ar
    18     5     6   ar
    19     6     7    2
    20     6     8   ar
    21     8    29    1
    22    29    30   ar
    23    29    31   ar
    24     8     9   ar
    25     9    10   ar
    26    10    32    1
    27    32    33    1
    28    33    34    1
    29    10    11   ar
    30    11    12   ar
    31    12    13    1
    32    17    18    1
    33    28    24   ar
    34    18    14    1
    35    12     1   ar
    36    11     5   ar
    37    34    32    1
    38    21    22    1
@<TRIPOS>MOLECULE
*****
 34 38 0 0 0
SMALL
GASTEIGER

@<TRIPOS>ATOM
      1 C         142.9690  139.3200  164.1691 C.ar    1  UNL1        0.0878
      2 C         144.0023  138.9140  165.1778 C.ar    1  UNL1        0.1543
      3 F         145.3413  138.4159  164.7209 F       1  UNL1       -0.2028
      4 C         143.6964  139.0062  166.6433 C.ar    1  UNL1        0.0356
      5 C         142.3573  139.5043  167.1002 C.ar    1  UNL1        0.0580
      6 C         142.0515  139.5965  168.5658 C.ar    1  UNL1        0.1996
      7 O         143.0848  139.1905  169.5745 O.2     1  UNL1       -0.2864
      8 C         140.7124  140.0946  169.0227 C.ar    1  UNL1        0.0701
      9 C         139.6792  140.5006  168.0139 C.ar    1  UNL1        0.0801
     10 N         139.9850  140.4085  166.5483 N.ar    1  UNL1       -0.3270
     11 C         141.3241  139.9103  166.0915 C.ar    1  UNL1        0.0750
     12 C         141.6299  139.8182  164.6259 C.ar    1  UNL1        0.0890
     13 CL        140.5967  140.2242  163.6171 Cl      1  UNL1       -0.0794
     14 C         143.3284  138.4645  160.4001 C.3     1  UNL1        0.0930
     15 C         144.1623  139.7077  160.4960 C.3     1  UNL1        0.0427
     16 C         144.1292  140.1795  161.9195 C.3     1  UNL1        0.0927
     17 N         143.2748  139.2279  162.7034 N.pl3   1  UNL1       -0.3033
     18 C         142.7800  138.1680  161.7644 C.3     1  UNL1        0.1104
     19 O         141.8195  139.6678  158.1034 O.2     1  UNL1       -0.2729
     20 C         142.3312  138.2608  158.0097 C.2     1  UNL1        0.2493
     21 N         143.0857  137.6592  159.1581 N.am    1  UNL1       -0.3025
     22 H         143.4216  136.7358  159.0967 H       1  UNL1        0.1495
     23 C         142.0885  137.4555  156.7677 C.3     1  UNL1        0.2355
     24 N         142.3869  135.9855  156.7567 N.ar    1  UNL1       -0.1413
     25 N         143.3935  135.2837  157.6193 N.ar    1  UNL1       -0.1259
     26 C         143.3598  133.8238  157.2768 C.ar    1  UNL1        0.2448
     27 N         142.3325  133.6233  156.2025 N.ar    1  UNL1       -0.1044
     28 N         141.7312  134.9593  155.8810 N.ar    1  UNL1       -0.0445
     29 C         140.4066  140.1867  170.4883 C.2     1  UNL1        0.0774
     30 O         139.3002  139.3625  171.0768 O.co2   1  UNL1       -0.5444
     31 O         141.2072  141.1032  171.3654 O.co2   1  UNL1       -0.5444
     32 C         138.9518  140.8144  165.5396 C.3     1  UNL1        0.0857
     33 C         137.8845  140.4450  164.5525 C.3     1  UNL1        0.0245
     34 C         138.2294  141.8870  164.7796 C.3     1  UNL1        0.0245
@<TRIPOS>UNITY_ATOM_ATTR
30 1
charge -1
@<TRIPOS>BOND
     1    19    20    2
     2    20    23    1
     3    23    24    1
     4    24    25   ar
     5    25    26   ar
     6    26    27   ar
     7    27    28   ar
     8    20    21   am
     9    21    14    1
    10    14    15    1
    11    15    16    1
    12    16    17    1
    13    17     1    1
    14     1     2   ar
    15     2     3    1
    16     2     4   ar
    17     4     5   ar
    18     5     6   ar
    19     6     7    2
    20     6     8   ar
    21     8    29    1
    22    29    30   ar
    23    29    31   ar
    24     8     9   ar
    25     9    10   ar
    26    10    32    1
    27    32    33    1
    28    33    34    1
    29    10    11   ar
    30    11    12   ar
    31    12    13    1
    32    17    18    1
    33    28    24   ar
    34    18    14    1
    35    12     1   ar
    36    11     5   ar
    37    34    32    1
    38    21    22    1
@<TRIPOS>MOLECULE
*****
 34 38 0 0 0
SMALL
GASTEIGER

@<TRIPOS>ATOM
      1 C         142.8502  141.0286  164.6792 C.ar    1  UNL1        0.0878
      2 C         143.7854  141.9143  165.4478 C.ar    1  UNL1        0.1543
      3 F         145.0668  142.3765  164.8197 F       1  UNL1       -0.2028
      4 C         143.4393  142.3379  166.8445 C.ar    1  UNL1        0.0356
      5 C         142.1579  141.8757  167.4725 C.ar    1  UNL1        0.0580
      6 C         141.8118  142.2994  168.8693 C.ar    1  UNL1        0.1996
      7 O         142.7470  143.1851  169.6379 O.2     1  UNL1       -0.2864
      8 C         140.5304  141.8372  169.4974 C.ar    1  UNL1        0.0701
      9 C         139.5952  140.9514  168.7287 C.ar    1  UNL1        0.0801
     10 N         139.9413  140.5278  167.3321 N.ar    1  UNL1       -0.3270
     11 C         141.2227  140.9900  166.7040 C.ar    1  UNL1        0.0750
     12 C         141.5688  140.5664  165.3073 C.ar    1  UNL1        0.0890
     13 CL        140.6336  139.6806  164.5386 Cl      1  UNL1       -0.0794
     14 C         143.4574  140.6006  160.8695 C.3     1  UNL1        0.0930
     15 C         144.0005  139.3056  161.3969 C.3     1  UNL1        0.0427
     16 C         143.8391  139.3083  162.8881 C.3     1  UNL1        0.0927
     17 N         143.1963  140.6049  163.2825 N.pl3   1  UNL1       -0.3033
     18 C         142.9604  141.4036  162.0349 C.3     1  UNL1        0.1104
     19 O         145.2564  142.7951  159.8957 O.2     1  UNL1       -0.2729
     20 C         144.3177  142.1163  158.9427 C.2     1  UNL1        0.2493
     21 N         143.4182  141.0191  159.4296 N.am    1  UNL1       -0.3025
     22 H         142.8021  140.5737  158.8041 H       1  UNL1        0.1495
     23 C         144.2785  142.5348  157.5028 C.3     1  UNL1        0.2355
     24 N         145.4609  142.2807  156.6154 N.ar    1  UNL1       -0.1413
     25 N         145.4113  141.7788  155.2028 N.ar    1  UNL1       -0.1259
     26 C         146.8202  141.6717  154.6992 C.ar    1  UNL1        0.2448
     27 N         147.7405  142.1074  155.8006 N.ar    1  UNL1       -0.1044
     28 N         146.9004  142.4838  156.9849 N.ar    1  UNL1       -0.0445
     29 C         140.1842  142.2608  170.8940 C.2     1  UNL1        0.0774
     30 O         140.7346  141.5030  172.0657 O.co2   1  UNL1       -0.5444
     31 O         139.2877  143.4422  171.1190 O.co2   1  UNL1       -0.5444
     32 C         139.0061  139.6421  166.5635 C.3     1  UNL1        0.0857
     33 C         138.3423  138.3109  166.3701 C.3     1  UNL1        0.0245
     34 C         138.0500  139.4390  165.4257 C.3     1  UNL1        0.0245
@<TRIPOS>UNITY_ATOM_ATTR
30 1
charge -1
@<TRIPOS>BOND
     1    19    20    2
     2    20    23    1
     3    23    24    1
     4    24    25   ar
     5    25    26   ar
     6    26    27   ar
     7    27    28   ar
     8    20    21   am
     9    21    14    1
    10    14    15    1
    11    15    16    1
    12    16    17    1
    13    17     1    1
    14     1     2   ar
    15     2     3    1
    16     2     4   ar
    17     4     5   ar
    18     5     6   ar
    19     6     7    2
    20     6     8   ar
    21     8    29    1
    22    29    30   ar
    23    29    31   ar
    24     8     9   ar
    25     9    10   ar
    26    10    32    1
    27    32    33    1
    28    33    34    1
    29    10    11   ar
    30    11    12   ar
    31    12    13    1
    32    17    18    1
    33    28    24   ar
    34    18    14    1
    35    12     1   ar
    36    11     5   ar
    37    34    32    1
    38    21    22    1
@<TRIPOS>MOLECULE
*****
 34 38 0 0 0
SMALL
GASTEIGER

@<TRIPOS>ATOM
      1 C         140.7453  139.5551  164.3105 C.ar    1  UNL1        0.0878
      2 C         141.4189  138.6358  165.2857 C.ar    1  UNL1        0.1543
      3 F         141.8438  137.2640  164.8526 F       1  UNL1       -0.2028
      4 C         141.6677  139.0883  166.6940 C.ar    1  UNL1        0.0356
      5 C         141.2428  140.4602  167.1271 C.ar    1  UNL1        0.0580
      6 C         141.4916  140.9127  168.5354 C.ar    1  UNL1        0.1996
      7 O         142.1652  139.9934  169.5106 O.2     1  UNL1       -0.2864
      8 C         141.0667  142.2845  168.9685 C.ar    1  UNL1        0.0701
      9 C         140.3930  143.2038  167.9932 C.ar    1  UNL1        0.0801
     10 N         140.1442  142.7513  166.5849 N.ar    1  UNL1       -0.3270
     11 C         140.5691  141.3794  166.1519 C.ar    1  UNL1        0.0750
     12 C         140.3204  140.9269  164.7436 C.ar    1  UNL1        0.0890
     13 CL        139.6466  141.8462  163.7683 Cl      1  UNL1       -0.0794
     14 C         140.8083  138.6158  160.5449 C.3     1  UNL1        0.0930
     15 C         139.4191  138.1966  160.9250 C.3     1  UNL1        0.0427
     16 C         139.2264  138.4975  162.3819 C.3     1  UNL1        0.0927
     17 N         140.4965  139.1025  162.9022 N.pl3   1  UNL1       -0.3033
     18 C         141.4741  139.1757  161.7669 C.3     1  UNL1        0.1104
     19 O         141.3677  141.0813  158.9299 O.2     1  UNL1       -0.2729
     20 C         141.7033  139.7288  158.3746 C.2     1  UNL1        0.2493
     21 N         141.4236  138.4961  159.1822 N.am    1  UNL1       -0.3025
     22 H         141.6439  137.6084  158.8178 H       1  UNL1        0.1495
     23 C         142.3186  139.6091  157.0119 C.3     1  UNL1        0.2355
     24 N         143.0112  138.3406  156.6105 N.ar    1  UNL1       -0.1413
     25 N         142.5674  136.9484  156.9496 N.ar    1  UNL1       -0.1259
     26 C         143.5511  135.9890  156.3482 C.ar    1  UNL1        0.2448
     27 N         144.6028  136.7880  155.6374 N.ar    1  UNL1       -0.1044
     28 N         144.2691  138.2414  155.7995 N.ar    1  UNL1       -0.0445
     29 C         141.3154  142.7371  170.3768 C.2     1  UNL1        0.0774
     30 O         142.5596  143.5064  170.7086 O.co2   1  UNL1       -0.5444
     31 O         140.3199  142.4203  171.4533 O.co2   1  UNL1       -0.5444
     32 C         139.4705  143.6705  165.6097 C.3     1  UNL1        0.0857
     33 C         139.5465  144.7912  164.6156 C.3     1  UNL1        0.0245
     34 C         138.2278  144.1421  164.9147 C.3     1  UNL1        0.0245
@<TRIPOS>UNITY_ATOM_ATTR
30 1
charge -1
@<TRIPOS>BOND
     1    19    20    2
     2    20    23    1
     3    23    24    1
     4    24    25   ar
     5    25    26   ar
     6    26    27   ar
     7    27    28   ar
     8    20    21   am
     9    21    14    1
    10    14    15    1
    11    15    16    1
    12    16    17    1
    13    17     1    1
    14     1     2   ar
    15     2     3    1
    16     2     4   ar
    17     4     5   ar
    18     5     6   ar
    19     6     7    2
    20     6     8   ar
    21     8    29    1
    22    29    30   ar
    23    29    31   ar
    24     8     9   ar
    25     9    10   ar
    26    10    32    1
    27    32    33    1
    28    33    34    1
    29    10    11   ar
    30    11    12   ar
    31    12    13    1
    32    17    18    1
    33    28    24   ar
    34    18    14    1
    35    12     1   ar
    36    11     5   ar
    37    34    32    1
    38    21    22    1
@<TRIPOS>MOLECULE
*****
 34 38 0 0 0
SMALL
GASTEIGER

@<TRIPOS>ATOM
      1 C         140.2390  139.3351  164.4298 C.ar    1  UNL1        0.0878
      2 C         139.2250  138.6167  165.2698 C.ar    1  UNL1        0.1543
      3 F         138.4206  137.4965  164.6799 F       1  UNL1       -0.2028
      4 C         139.0155  139.0186  166.6997 C.ar    1  UNL1        0.0356
      5 C         139.8199  140.1388  167.2895 C.ar    1  UNL1        0.0580
      6 C         139.6103  140.5406  168.7195 C.ar    1  UNL1        0.1996
      7 O         138.5963  139.8222  169.5595 O.2     1  UNL1       -0.2864
      8 C         140.4147  141.6609  169.3094 C.ar    1  UNL1        0.0701
      9 C         141.4288  142.3793  168.4693 C.ar    1  UNL1        0.0801
     10 N         141.6384  141.9774  167.0394 N.ar    1  UNL1       -0.3270
     11 C         140.8339  140.8572  166.4496 C.ar    1  UNL1        0.0750
     12 C         141.0435  140.4554  165.0197 C.ar    1  UNL1        0.0890
     13 CL        142.0575  141.1738  164.1796 Cl      1  UNL1       -0.0794
     14 C         140.1824  138.7327  160.5958 C.3     1  UNL1        0.0930
     15 C         141.3599  137.8974  161.0031 C.3     1  UNL1        0.0427
     16 C         141.5244  138.0214  162.4889 C.3     1  UNL1        0.0927
     17 N         140.4487  138.9333  162.9999 N.pl3   1  UNL1       -0.3033
     18 C         139.6192  139.3729  161.8299 C.3     1  UNL1        0.1104
     19 O         140.5962  141.3213  159.1371 O.2     1  UNL1       -0.2729
     20 C         139.8667  140.1929  158.4702 C.2     1  UNL1        0.2493
     21 N         139.6599  138.8986  159.1996 N.am    1  UNL1       -0.3025
     22 H         139.1811  138.1580  158.7619 H       1  UNL1        0.1495
     23 C         139.3442  140.3587  157.0740 C.3     1  UNL1        0.2355
     24 N         138.9557  139.1532  156.2704 N.ar    1  UNL1       -0.1413
     25 N         139.7020  137.8533  156.2140 N.ar    1  UNL1       -0.1259
     26 C         138.9602  136.9327  155.2908 C.ar    1  UNL1        0.2448
     27 N         137.7556  137.6635  154.7767 N.ar    1  UNL1       -0.1044
     28 N         137.7528  139.0359  155.3821 N.ar    1  UNL1       -0.0445
     29 C         140.2052  142.0627  170.7392 C.2     1  UNL1        0.0774
     30 O         140.7811  141.2285  171.8449 O.co2   1  UNL1       -0.5444
     31 O         139.4196  143.2988  171.0635 O.co2   1  UNL1       -0.5444
     32 C         142.6524  142.6958  166.1994 C.3     1  UNL1        0.0857
     33 C         142.9782  143.6684  165.1049 C.3     1  UNL1        0.0245
     34 C         144.0828  142.9676  165.8390 C.3     1  UNL1        0.0245
@<TRIPOS>UNITY_ATOM_ATTR
30 1
charge -1
@<TRIPOS>BOND
     1    19    20    2
     2    20    23    1
     3    23    24    1
     4    24    25   ar
     5    25    26   ar
     6    26    27   ar
     7    27    28   ar
     8    20    21   am
     9    21    14    1
    10    14    15    1
    11    15    16    1
    12    16    17    1
    13    17     1    1
    14     1     2   ar
    15     2     3    1
    16     2     4   ar
    17     4     5   ar
    18     5     6   ar
    19     6     7    2
    20     6     8   ar
    21     8    29    1
    22    29    30   ar
    23    29    31   ar
    24     8     9   ar
    25     9    10   ar
    26    10    32    1
    27    32    33    1
    28    33    34    1
    29    10    11   ar
    30    11    12   ar
    31    12    13    1
    32    17    18    1
    33    28    24   ar
    34    18    14    1
    35    12     1   ar
    36    11     5   ar
    37    34    32    1
    38    21    22    1
@<TRIPOS>MOLECULE
*****
 34 38 0 0 0
SMALL
GASTEIGER

@<TRIPOS>ATOM
      1 C         142.7642  141.4980  164.2497 C.ar    1  UNL1        0.0878
      2 C         143.8206  142.2283  165.0246 C.ar    1  UNL1        0.1543
      3 F         145.0461  142.7378  164.3256 F       1  UNL1       -0.2028
      4 C         143.6515  142.4491  166.4986 C.ar    1  UNL1        0.0356
      5 C         142.4260  141.9396  167.1976 C.ar    1  UNL1        0.0580
      6 C         142.2569  142.1605  168.6716 C.ar    1  UNL1        0.1996
      7 O         143.3133  142.8908  169.4466 O.2     1  UNL1       -0.2864
      8 C         141.0314  141.6509  169.3706 C.ar    1  UNL1        0.0701
      9 C         139.9750  140.9206  168.5955 C.ar    1  UNL1        0.0801
     10 N         140.1441  140.6997  167.1216 N.ar    1  UNL1       -0.3270
     11 C         141.3696  141.2093  166.4226 C.ar    1  UNL1        0.0750
     12 C         141.5387  140.9884  164.9486 C.ar    1  UNL1        0.0890
     13 CL        140.4823  140.2581  164.1736 Cl      1  UNL1       -0.0794
     14 C         143.0451  140.2078  160.5997 C.3     1  UNL1        0.0930
     15 C         143.3417  141.6666  160.4151 C.3     1  UNL1        0.0427
     16 C         143.2726  142.3274  161.7599 C.3     1  UNL1        0.0927
     17 N         142.9333  141.2771  162.7756 N.pl3   1  UNL1       -0.3033
     18 C         142.7927  139.9671  162.0585 C.3     1  UNL1        0.1104
     19 O         140.4296  139.4457  159.3432 O.2     1  UNL1       -0.2729
     20 C         141.6998  138.7906  158.8874 C.2     1  UNL1        0.2493
     21 N         143.0075  139.1717  159.5157 N.am    1  UNL1       -0.3025
     22 H         143.8412  138.7417  159.2166 H       1  UNL1        0.1495
     23 C         141.6622  137.7545  157.8035 C.3     1  UNL1        0.2355
     24 N         142.8517  137.5597  156.9105 N.ar    1  UNL1       -0.1413
     25 N         143.1921  136.3091  156.1556 N.ar    1  UNL1       -0.1259
     26 C         144.4603  136.5579  155.3943 C.ar    1  UNL1        0.2448
     27 N         144.9037  137.9623  155.6786 N.ar    1  UNL1       -0.1044
     28 N         143.9095  138.5815  156.6157 N.ar    1  UNL1       -0.0445
     29 C         140.8623  141.8718  170.8446 C.2     1  UNL1        0.0774
     30 O         141.7043  141.1034  171.8195 O.co2   1  UNL1       -0.5444
     31 O         139.8512  142.8610  171.3436 O.co2   1  UNL1       -0.5444
     32 C         139.0878  139.9694  166.3466 C.3     1  UNL1        0.0857
     33 C         138.3272  138.7095  166.0564 C.3     1  UNL1        0.0245
     34 C         138.0186  139.9643  165.2946 C.3     1  UNL1        0.0245
@<TRIPOS>UNITY_ATOM_ATTR
30 1
charge -1
@<TRIPOS>BOND
     1    19    20    2
     2    20    23    1
     3    23    24    1
     4    24    25   ar
     5    25    26   ar
     6    26    27   ar
     7    27    28   ar
     8    20    21   am
     9    21    14    1
    10    14    15    1
    11    15    16    1
    12    16    17    1
    13    17     1    1
    14     1     2   ar
    15     2     3    1
    16     2     4   ar
    17     4     5   ar
    18     5     6   ar
    19     6     7    2
    20     6     8   ar
    21     8    29    1
    22    29    30   ar
    23    29    31   ar
    24     8     9   ar
    25     9    10   ar
    26    10    32    1
    27    32    33    1
    28    33    34    1
    29    10    11   ar
    30    11    12   ar
    31    12    13    1
    32    17    18    1
    33    28    24   ar
    34    18    14    1
    35    12     1   ar
    36    11     5   ar
    37    34    32    1
    38    21    22    1
@<TRIPOS>MOLECULE
*****
 34 38 0 0 0
SMALL
GASTEIGER

@<TRIPOS>ATOM
      1 C         142.7358  140.8117  164.5494 C.ar    1  UNL1        0.0878
      2 C         143.7033  141.7082  165.2637 C.ar    1  UNL1        0.1543
      3 F         144.9706  142.1363  164.5848 F       1  UNL1       -0.2028
      4 C         143.4037  142.1766  166.6568 C.ar    1  UNL1        0.0356
      5 C         142.1364  141.7485  167.3356 C.ar    1  UNL1        0.0580
      6 C         141.8368  142.2169  168.7288 C.ar    1  UNL1        0.1996
      7 O         142.8043  143.1134  169.4430 O.2     1  UNL1       -0.2864
      8 C         140.5696  141.7888  169.4077 C.ar    1  UNL1        0.0701
      9 C         139.6020  140.8923  168.6934 C.ar    1  UNL1        0.0801
     10 N         139.9017  140.4239  167.3003 N.ar    1  UNL1       -0.3270
     11 C         141.1689  140.8520  166.6214 C.ar    1  UNL1        0.0750
     12 C         141.4686  140.3836  165.2283 C.ar    1  UNL1        0.0890
     13 CL        140.5010  139.4871  164.5140 Cl      1  UNL1       -0.0794
     14 C         142.9661  140.0802  160.7445 C.3     1  UNL1        0.0930
     15 C         144.0269  139.1649  161.2804 C.3     1  UNL1        0.0427
     16 C         144.0697  139.3276  162.7709 C.3     1  UNL1        0.0927
     17 N         143.0355  140.3433  163.1563 N.pl3   1  UNL1       -0.3033
     18 C         142.3534  140.8085  161.9039 C.3     1  UNL1        0.1104
     19 O         140.6823  138.4977  159.6133 O.2     1  UNL1       -0.2729
     20 C         141.4431  139.4480  158.7368 C.2     1  UNL1        0.2493
     21 N         142.5851  140.2392  159.3025 N.am    1  UNL1       -0.3025
     22 H         143.0844  140.8629  158.7273 H       1  UNL1        0.1495
     23 C         141.0620  139.6070  157.2948 C.3     1  UNL1        0.2355
     24 N         140.3722  138.4873  156.5735 N.ar    1  UNL1       -0.1413
     25 N         141.0434  137.3869  155.8063 N.ar    1  UNL1       -0.1259
     26 C         139.9760  136.4909  155.2513 C.ar    1  UNL1        0.2448
     27 N         138.6452  137.0375  155.6756 N.ar    1  UNL1       -0.1044
     28 N         138.8900  138.2713  156.4927 N.ar    1  UNL1       -0.0445
     29 C         140.2699  142.2572  170.8008 C.2     1  UNL1        0.0774
     30 O         140.7658  141.4723  171.9789 O.co2   1  UNL1       -0.5444
     31 O         139.4742  143.5105  171.0158 O.co2   1  UNL1       -0.5444
     32 C         138.9342  139.5274  166.5861 C.3     1  UNL1        0.0857
     33 C         138.2184  138.2138  166.4764 C.3     1  UNL1        0.0245
     34 C         137.9741  139.2882  165.4587 C.3     1  UNL1        0.0245
@<TRIPOS>UNITY_ATOM_ATTR
30 1
charge -1
@<TRIPOS>BOND
     1    19    20    2
     2    20    23    1
     3    23    24    1
     4    24    25   ar
     5    25    26   ar
     6    26    27   ar
     7    27    28   ar
     8    20    21   am
     9    21    14    1
    10    14    15    1
    11    15    16    1
    12    16    17    1
    13    17     1    1
    14     1     2   ar
    15     2     3    1
    16     2     4   ar
    17     4     5   ar
    18     5     6   ar
    19     6     7    2
    20     6     8   ar
    21     8    29    1
    22    29    30   ar
    23    29    31   ar
    24     8     9   ar
    25     9    10   ar
    26    10    32    1
    27    32    33    1
    28    33    34    1
    29    10    11   ar
    30    11    12   ar
    31    12    13    1
    32    17    18    1
    33    28    24   ar
    34    18    14    1
    35    12     1   ar
    36    11     5   ar
    37    34    32    1
    38    21    22    1
