@<TRIPOS>MOLECULE
*****
 36 40 0 0 0
SMALL
GASTEIGER

@<TRIPOS>ATOM
      1 C         138.4014  139.7549  159.3180 C.ar    1  UNL1        0.0503
      2 C         137.3826  139.8191  160.4171 C.ar    1  UNL1        0.0143
      3 C         137.7109  139.2771  161.7766 C.ar    1  UNL1       -0.0029
      4 C         139.0580  138.6710  162.0371 C.ar    1  UNL1       -0.0208
      5 C         140.0768  138.6068  160.9380 C.ar    1  UNL1       -0.0029
      6 C         139.7485  139.1488  159.5784 C.ar    1  UNL1        0.0143
      7 O         138.0941  142.7120  158.9161 O.2     1  UNL1       -0.2727
      8 C         137.9194  141.7756  157.7575 C.2     1  UNL1        0.2469
      9 N         138.0731  140.2969  157.9584 N.am    1  UNL1       -0.2824
     10 H         137.9584  139.6823  157.1980 H       1  UNL1        0.1549
     11 C         137.5911  142.3176  156.3979 C.3     1  UNL1        0.1648
     12 C         138.3648  143.3675  155.6569 C.3     1  UNL1        0.0383
     13 C         137.6833  143.6036  154.3417 C.3     1  UNL1        0.0463
     14 C         136.4884  142.6996  154.2698 C.ar    1  UNL1        0.0403
     15 C         135.4450  142.4975  153.2114 C.ar    1  UNL1        0.0130
     16 C         134.3446  141.5005  153.4238 C.ar    1  UNL1        0.0060
     17 C         134.2876  140.7057  154.6947 C.ar    1  UNL1        0.0608
     18 C         135.3311  140.9078  155.7531 C.ar    1  UNL1        0.2610
     19 O         135.2741  140.1130  157.0239 O.2     1  UNL1       -0.2670
     20 N         136.4315  141.9047  155.5407 N.ar    1  UNL1       -0.2926
     21 C         139.3864  138.1289  163.3967 C.3     1  UNL1        0.0420
     22 C         139.4415  139.0511  164.5784 C.3     1  UNL1        0.0585
     23 C         138.9950  138.7251  165.9729 C.3     1  UNL1        0.0175
     24 C         139.2304  139.9337  166.8295 C.3     1  UNL1        0.0199
     25 C         139.8223  141.0067  165.9645 C.3     1  UNL1        0.0855
     26 N         139.9528  140.4613  164.5732 N.3     1  UNL1       -0.2971
     27 H         140.9318  140.4735  164.2871 H       1  UNL1        0.1233
     28 C         140.2149  142.3835  166.4121 C.3     1  UNL1        0.1470
     29 O         139.7971  143.5804  165.6103 O.3     1  UNL1       -0.3787
     30 H         140.1305  144.3864  166.0348 H       1  UNL1        0.2108
     31 C         141.0252  142.5634  167.6615 C.ar    1  UNL1        0.0055
     32 C         142.4403  142.0686  167.7154 C.ar    1  UNL1       -0.0019
     33 C         143.2506  142.2486  168.9648 C.ar    1  UNL1       -0.0002
     34 C         142.6459  142.9234  170.1602 C.ar    1  UNL1       -0.0000
     35 C         141.2309  143.4181  170.1063 C.ar    1  UNL1       -0.0002
     36 C         140.4205  143.2382  168.8570 C.ar    1  UNL1       -0.0019
@<TRIPOS>BOND
     1     7     8    2
     2     8     9   am
     3     9     1    1
     4     1     2   ar
     5     2     3   ar
     6     3     4   ar
     7     4    21    1
     8    22    21    1
     9    22    23    1
    10    23    24    1
    11    25    24    1
    12    25    28    1
    13    28    29    1
    14    28    31    1
    15    31    32   ar
    16    32    33   ar
    17    33    34   ar
    18    34    35   ar
    19    35    36   ar
    20    25    26    1
    21     4     5   ar
    22     5     6   ar
    23    11     8    1
    24    11    12    1
    25    12    13    1
    26    13    14    1
    27    14    15   ar
    28    15    16   ar
    29    16    17   ar
    30    17    18   ar
    31    18    19    2
    32    18    20   ar
    33     6     1   ar
    34    20    11    1
    35    26    22    1
    36    20    14   ar
    37    36    31   ar
    38     9    10    1
    39    29    30    1
    40    26    27    1
@<TRIPOS>MOLECULE
*****
 36 40 0 0 0
SMALL
GASTEIGER

@<TRIPOS>ATOM
      1 C         143.2857  138.4635  159.2896 C.ar    1  UNL1        0.0503
      2 C         143.3044  137.5591  160.4861 C.ar    1  UNL1        0.0143
      3 C         143.6434  138.1117  161.8387 C.ar    1  UNL1       -0.0029
      4 C         143.9638  139.5687  161.9948 C.ar    1  UNL1       -0.0208
      5 C         143.9450  140.4731  160.7983 C.ar    1  UNL1       -0.0029
      6 C         143.6060  139.9205  159.4456 C.ar    1  UNL1        0.0143
      7 O         140.4159  138.1536  158.4721 O.2     1  UNL1       -0.2727
      8 C         141.5116  137.7559  157.5282 C.2     1  UNL1        0.2469
      9 N         142.9466  137.9108  157.9369 N.am    1  UNL1       -0.2824
     10 H         143.6658  137.6498  157.3174 H       1  UNL1        0.1549
     11 C         141.1726  137.2033  156.1755 C.3     1  UNL1        0.1648
     12 C         140.2895  137.8548  155.1530 C.3     1  UNL1        0.0383
     13 C         140.2283  136.9563  153.9535 C.3     1  UNL1        0.0463
     14 C         141.0734  135.7494  154.2347 C.ar    1  UNL1        0.0403
     15 C         141.3870  134.5311  153.4177 C.ar    1  UNL1        0.0130
     16 C         142.2842  133.4655  153.9740 C.ar    1  UNL1        0.0060
     17 C         142.8678  133.6182  155.3474 C.ar    1  UNL1        0.0608
     18 C         142.5542  134.8364  156.1644 C.ar    1  UNL1        0.2610
     19 O         143.1378  134.9891  157.5377 O.2     1  UNL1       -0.2670
     20 N         141.6571  135.9020  155.6080 N.ar    1  UNL1       -0.2926
     21 C         144.3028  140.1214  163.3474 C.3     1  UNL1        0.0420
     22 C         143.4534  139.7742  164.5339 C.3     1  UNL1        0.0585
     23 C         143.8450  138.8690  165.6641 C.3     1  UNL1        0.0175
     24 C         142.6968  138.8064  166.6273 C.3     1  UNL1        0.0199
     25 C         141.5955  139.6730  166.0924 C.3     1  UNL1        0.0855
     26 N         142.0630  140.2711  164.7986 N.3     1  UNL1       -0.2971
     27 H         142.0667  141.2887  164.8690 H       1  UNL1        0.1233
     28 C         140.2609  139.9014  166.7378 C.3     1  UNL1        0.1470
     29 O         139.0485  139.1789  166.2297 O.3     1  UNL1       -0.3787
     30 H         138.2743  139.4383  166.7534 H       1  UNL1        0.2108
     31 C         140.1385  140.8524  167.8914 C.ar    1  UNL1        0.0055
     32 C         139.4838  140.4062  169.1650 C.ar    1  UNL1       -0.0019
     33 C         139.3614  141.3571  170.3186 C.ar    1  UNL1       -0.0002
     34 C         139.8939  142.7543  170.1985 C.ar    1  UNL1       -0.0000
     35 C         140.5486  143.2005  168.9249 C.ar    1  UNL1       -0.0002
     36 C         140.6710  142.2496  167.7713 C.ar    1  UNL1       -0.0019
@<TRIPOS>BOND
     1     7     8    2
     2     8     9   am
     3     9     1    1
     4     1     2   ar
     5     2     3   ar
     6     3     4   ar
     7     4    21    1
     8    22    21    1
     9    22    23    1
    10    23    24    1
    11    25    24    1
    12    25    28    1
    13    28    29    1
    14    28    31    1
    15    31    32   ar
    16    32    33   ar
    17    33    34   ar
    18    34    35   ar
    19    35    36   ar
    20    25    26    1
    21     4     5   ar
    22     5     6   ar
    23    11     8    1
    24    11    12    1
    25    12    13    1
    26    13    14    1
    27    14    15   ar
    28    15    16   ar
    29    16    17   ar
    30    17    18   ar
    31    18    19    2
    32    18    20   ar
    33     6     1   ar
    34    20    11    1
    35    26    22    1
    36    20    14   ar
    37    36    31   ar
    38     9    10    1
    39    29    30    1
    40    26    27    1
@<TRIPOS>MOLECULE
*****
 36 40 0 0 0
SMALL
GASTEIGER

@<TRIPOS>ATOM
      1 C         143.3491  138.5692  159.4815 C.ar    1  UNL1        0.0503
      2 C         143.7201  140.0109  159.6656 C.ar    1  UNL1        0.0143
      3 C         144.0928  140.5217  161.0258 C.ar    1  UNL1       -0.0029
      4 C         144.0945  139.5907  162.2019 C.ar    1  UNL1       -0.0208
      5 C         143.7235  138.1490  162.0178 C.ar    1  UNL1       -0.0029
      6 C         143.3508  137.6382  160.6576 C.ar    1  UNL1        0.0143
      7 O         140.4600  138.2639  158.7336 O.2     1  UNL1       -0.2727
      8 C         141.5318  137.9057  157.7473 C.2     1  UNL1        0.2469
      9 N         142.9765  138.0584  158.1213 N.am    1  UNL1       -0.2824
     10 H         143.6800  137.8233  157.4740 H       1  UNL1        0.1549
     11 C         141.1591  137.3949  156.3871 C.3     1  UNL1        0.1648
     12 C         140.2300  138.0641  155.4181 C.3     1  UNL1        0.0383
     13 C         140.1468  137.2080  154.1892 C.3     1  UNL1        0.0463
     14 C         141.0245  136.0098  154.3987 C.ar    1  UNL1        0.0403
     15 C         141.3348  134.8284  153.5281 C.ar    1  UNL1        0.0130
     16 C         142.2708  133.7626  154.0158 C.ar    1  UNL1        0.0060
     17 C         142.8964  133.8781  155.3742 C.ar    1  UNL1        0.0608
     18 C         142.5861  135.0595  156.2449 C.ar    1  UNL1        0.2610
     19 O         143.2117  135.1750  157.6033 O.2     1  UNL1       -0.2670
     20 N         141.6501  136.1253  155.7571 N.ar    1  UNL1       -0.2926
     21 C         144.4671  140.1014  163.5622 C.3     1  UNL1        0.0420
     22 C         143.4556  140.0923  164.6697 C.3     1  UNL1        0.0585
     23 C         143.3983  139.1118  165.8036 C.3     1  UNL1        0.0175
     24 C         142.2310  139.4755  166.6725 C.3     1  UNL1        0.0199
     25 C         141.5668  140.6808  166.0757 C.3     1  UNL1        0.0855
     26 N         142.3236  141.0620  164.8379 N.3     1  UNL1       -0.2971
     27 H         142.6903  142.0089  164.9343 H       1  UNL1        0.1233
     28 C         140.3580  141.3818  166.6210 C.3     1  UNL1        0.1470
     29 O         139.9756  141.2074  168.0609 O.3     1  UNL1       -0.3787
     30 H         139.1767  141.7247  168.2483 H       1  UNL1        0.2108
     31 C         139.5315  142.2574  165.7263 C.ar    1  UNL1        0.0055
     32 C         138.5558  141.6417  164.7676 C.ar    1  UNL1       -0.0019
     33 C         137.7294  142.5172  163.8730 C.ar    1  UNL1       -0.0002
     34 C         137.8785  144.0084  163.9371 C.ar    1  UNL1       -0.0000
     35 C         138.8542  144.6240  164.8957 C.ar    1  UNL1       -0.0002
     36 C         139.6807  143.7486  165.7904 C.ar    1  UNL1       -0.0019
@<TRIPOS>BOND
     1     7     8    2
     2     8     9   am
     3     9     1    1
     4     1     2   ar
     5     2     3   ar
     6     3     4   ar
     7     4    21    1
     8    22    21    1
     9    22    23    1
    10    23    24    1
    11    25    24    1
    12    25    28    1
    13    28    29    1
    14    28    31    1
    15    31    32   ar
    16    32    33   ar
    17    33    34   ar
    18    34    35   ar
    19    35    36   ar
    20    25    26    1
    21     4     5   ar
    22     5     6   ar
    23    11     8    1
    24    11    12    1
    25    12    13    1
    26    13    14    1
    27    14    15   ar
    28    15    16   ar
    29    16    17   ar
    30    17    18   ar
    31    18    19    2
    32    18    20   ar
    33     6     1   ar
    34    20    11    1
    35    26    22    1
    36    20    14   ar
    37    36    31   ar
    38     9    10    1
    39    29    30    1
    40    26    27    1
@<TRIPOS>MOLECULE
*****
 36 40 0 0 0
SMALL
GASTEIGER

@<TRIPOS>ATOM
      1 C         142.8806  138.2369  159.3267 C.ar    1  UNL1        0.0503
      2 C         143.4024  137.6994  160.6263 C.ar    1  UNL1        0.0143
      3 C         144.0288  138.6275  161.6244 C.ar    1  UNL1       -0.0029
      4 C         144.1332  140.0932  161.3230 C.ar    1  UNL1       -0.0208
      5 C         143.6114  140.6307  160.0235 C.ar    1  UNL1       -0.0029
      6 C         142.9851  139.7026  159.0253 C.ar    1  UNL1        0.0143
      7 O         143.9707  138.0781  156.5363 O.2     1  UNL1       -0.2727
      8 C         142.7994  137.2294  156.9333 C.2     1  UNL1        0.2469
      9 N         142.2543  137.3088  158.3286 N.am    1  UNL1       -0.2824
     10 H         141.4855  136.7518  158.5892 H       1  UNL1        0.1549
     11 C         142.1731  136.3013  155.9351 C.3     1  UNL1        0.1648
     12 C         141.3767  136.7087  154.7311 C.3     1  UNL1        0.0383
     13 C         140.9447  135.4620  154.0176 C.3     1  UNL1        0.0463
     14 C         141.4740  134.2840  154.7807 C.ar    1  UNL1        0.0403
     15 C         141.3628  132.8062  154.5496 C.ar    1  UNL1        0.0130
     16 C         142.0108  131.8470  155.5035 C.ar    1  UNL1        0.0060
     17 C         142.7700  132.3658  156.6886 C.ar    1  UNL1        0.0608
     18 C         142.8813  133.8436  156.9198 C.ar    1  UNL1        0.2610
     19 O         143.6405  134.3624  158.1049 O.2     1  UNL1       -0.2670
     20 N         142.2332  134.8028  155.9658 N.ar    1  UNL1       -0.2926
     21 C         144.7595  141.0214  162.3211 C.3     1  UNL1        0.0420
     22 C         143.9310  141.6008  163.4292 C.3     1  UNL1        0.0585
     23 C         144.4550  142.2893  164.6546 C.3     1  UNL1        0.0175
     24 C         143.2809  142.7074  165.4892 C.3     1  UNL1        0.0199
     25 C         142.0313  142.2773  164.7798 C.3     1  UNL1        0.0855
     26 N         142.4330  141.5934  163.5066 N.3     1  UNL1       -0.2971
     27 H         142.0427  142.0926  162.7074 H       1  UNL1        0.1233
     28 C         140.6265  142.4932  165.2592 C.3     1  UNL1        0.1470
     29 O         139.9820  143.8397  165.1110 O.3     1  UNL1       -0.3787
     30 H         139.0810  143.8080  165.4688 H       1  UNL1        0.2108
     31 C         139.8660  141.3628  165.8867 C.ar    1  UNL1        0.0055
     32 C         138.8556  140.6005  165.0818 C.ar    1  UNL1       -0.0019
     33 C         138.0952  139.4700  165.7094 C.ar    1  UNL1       -0.0002
     34 C         138.3451  139.1020  167.1419 C.ar    1  UNL1       -0.0000
     35 C         139.3555  139.8644  167.9468 C.ar    1  UNL1       -0.0002
     36 C         140.1160  140.9947  167.3193 C.ar    1  UNL1       -0.0019
@<TRIPOS>BOND
     1     7     8    2
     2     8     9   am
     3     9     1    1
     4     1     2   ar
     5     2     3   ar
     6     3     4   ar
     7     4    21    1
     8    22    21    1
     9    22    23    1
    10    23    24    1
    11    25    24    1
    12    25    28    1
    13    28    29    1
    14    28    31    1
    15    31    32   ar
    16    32    33   ar
    17    33    34   ar
    18    34    35   ar
    19    35    36   ar
    20    25    26    1
    21     4     5   ar
    22     5     6   ar
    23    11     8    1
    24    11    12    1
    25    12    13    1
    26    13    14    1
    27    14    15   ar
    28    15    16   ar
    29    16    17   ar
    30    17    18   ar
    31    18    19    2
    32    18    20   ar
    33     6     1   ar
    34    20    11    1
    35    26    22    1
    36    20    14   ar
    37    36    31   ar
    38     9    10    1
    39    29    30    1
    40    26    27    1
@<TRIPOS>MOLECULE
*****
 36 40 0 0 0
SMALL
GASTEIGER

@<TRIPOS>ATOM
      1 C         142.8250  138.1738  159.1904 C.ar    1  UNL1        0.0503
      2 C         142.8781  139.6358  158.8593 C.ar    1  UNL1        0.0143
      3 C         143.4628  140.6067  159.8419 C.ar    1  UNL1       -0.0029
      4 C         143.9944  140.1154  161.1557 C.ar    1  UNL1       -0.0208
      5 C         143.9413  138.6534  161.4868 C.ar    1  UNL1       -0.0029
      6 C         143.3566  137.6825  160.5042 C.ar    1  UNL1        0.0143
      7 O         144.0415  137.8835  156.4636 O.2     1  UNL1       -0.2727
      8 C         142.8486  137.0578  156.8443 C.2     1  UNL1        0.2469
      9 N         142.2403  137.2029  158.2078 N.am    1  UNL1       -0.2824
     10 H         141.4573  136.6610  158.4577 H       1  UNL1        0.1549
     11 C         142.2639  136.0870  155.8616 C.3     1  UNL1        0.1648
     12 C         141.5244  136.4414  154.6056 C.3     1  UNL1        0.0383
     13 C         141.1195  135.1647  153.9303 C.3     1  UNL1        0.0463
     14 C         141.6088  134.0212  154.7689 C.ar    1  UNL1        0.0403
     15 C         141.5016  132.5347  154.5998 C.ar    1  UNL1        0.0130
     16 C         142.1018  131.6182  155.6243 C.ar    1  UNL1        0.0060
     17 C         142.8091  132.1882  156.8180 C.ar    1  UNL1        0.0608
     18 C         142.9162  133.6747  156.9871 C.ar    1  UNL1        0.2610
     19 O         143.6235  134.2448  158.1807 O.2     1  UNL1       -0.2670
     20 N         142.3161  134.5913  155.9625 N.ar    1  UNL1       -0.2926
     21 C         144.5791  141.0862  162.1384 C.3     1  UNL1        0.0420
     22 C         143.6990  141.7368  163.1641 C.3     1  UNL1        0.0585
     23 C         143.4813  143.2115  163.3314 C.3     1  UNL1        0.0175
     24 C         142.5298  143.4131  164.4733 C.3     1  UNL1        0.0199
     25 C         142.1594  142.0630  165.0117 C.3     1  UNL1        0.0855
     26 N         142.8820  141.0270  164.2026 N.3     1  UNL1       -0.2971
     27 H         142.2082  140.4091  163.7502 H       1  UNL1        0.1233
     28 C         141.2296  141.7957  166.1580 C.3     1  UNL1        0.1470
     29 O         139.9243  141.0967  165.9178 O.3     1  UNL1       -0.3787
     30 H         139.4479  141.0039  166.7576 H       1  UNL1        0.2108
     31 C         141.6050  142.2274  167.5446 C.ar    1  UNL1        0.0055
     32 C         140.5960  142.9170  168.4144 C.ar    1  UNL1       -0.0019
     33 C         140.9714  143.3488  169.8010 C.ar    1  UNL1       -0.0002
     34 C         142.3557  143.0909  170.3179 C.ar    1  UNL1       -0.0000
     35 C         143.3647  142.4013  169.4481 C.ar    1  UNL1       -0.0002
     36 C         142.9894  141.9695  168.0615 C.ar    1  UNL1       -0.0019
@<TRIPOS>BOND
     1     7     8    2
     2     8     9   am
     3     9     1    1
     4     1     2   ar
     5     2     3   ar
     6     3     4   ar
     7     4    21    1
     8    22    21    1
     9    22    23    1
    10    23    24    1
    11    25    24    1
    12    25    28    1
    13    28    29    1
    14    28    31    1
    15    31    32   ar
    16    32    33   ar
    17    33    34   ar
    18    34    35   ar
    19    35    36   ar
    20    25    26    1
    21     4     5   ar
    22     5     6   ar
    23    11     8    1
    24    11    12    1
    25    12    13    1
    26    13    14    1
    27    14    15   ar
    28    15    16   ar
    29    16    17   ar
    30    17    18   ar
    31    18    19    2
    32    18    20   ar
    33     6     1   ar
    34    20    11    1
    35    26    22    1
    36    20    14   ar
    37    36    31   ar
    38     9    10    1
    39    29    30    1
    40    26    27    1
@<TRIPOS>MOLECULE
*****
 36 40 0 0 0
SMALL
GASTEIGER

@<TRIPOS>ATOM
      1 C         138.4483  139.6449  159.4846 C.ar    1  UNL1        0.0503
      2 C         137.4214  139.7580  160.5722 C.ar    1  UNL1        0.0143
      3 C         137.6853  139.1521  161.9188 C.ar    1  UNL1       -0.0029
      4 C         138.9760  138.4331  162.1777 C.ar    1  UNL1       -0.0208
      5 C         140.0029  138.3200  161.0901 C.ar    1  UNL1       -0.0029
      6 C         139.7390  138.9260  159.7435 C.ar    1  UNL1        0.0143
      7 O         138.1872  142.6203  159.2037 O.2     1  UNL1       -0.2727
      8 C         138.0539  141.7386  157.9976 C.2     1  UNL1        0.2469
      9 N         138.1844  140.2508  158.1381 N.am    1  UNL1       -0.2824
     10 H         138.0968  139.6721  157.3465 H       1  UNL1        0.1549
     11 C         137.7900  142.3445  156.6510 C.3     1  UNL1        0.1648
     12 C         138.5968  143.4274  155.9981 C.3     1  UNL1        0.0383
     13 C         137.9784  143.7260  154.6645 C.3     1  UNL1        0.0463
     14 C         136.7894  142.8277  154.4933 C.ar    1  UNL1        0.0403
     15 C         135.7977  142.6768  153.3780 C.ar    1  UNL1        0.0130
     16 C         134.6897  141.6721  153.4905 C.ar    1  UNL1        0.0060
     17 C         134.5732  140.8183  154.7183 C.ar    1  UNL1        0.0608
     18 C         135.5649  140.9691  155.8335 C.ar    1  UNL1        0.2610
     19 O         135.4485  140.1153  157.0613 O.2     1  UNL1       -0.2670
     20 N         136.6730  141.9738  155.7210 N.ar    1  UNL1       -0.2926
     21 C         139.2400  137.8272  163.5243 C.3     1  UNL1        0.0420
     22 C         139.3172  138.7038  164.7390 C.3     1  UNL1        0.0585
     23 C         138.5215  138.5360  165.9995 C.3     1  UNL1        0.0175
     24 C         138.9162  139.6306  166.9461 C.3     1  UNL1        0.0199
     25 C         139.9558  140.4749  166.2706 C.3     1  UNL1        0.0855
     26 N         140.2037  139.9021  164.9066 N.3     1  UNL1       -0.2971
     27 H         141.1813  139.6243  164.8202 H       1  UNL1        0.1233
     28 C         140.6294  141.6804  166.8563 C.3     1  UNL1        0.1470
     29 O         140.3099  142.1117  168.2571 O.3     1  UNL1       -0.3787
     30 H         140.8277  142.9015  168.4783 H       1  UNL1        0.2108
     31 C         141.6225  142.4547  166.0414 C.ar    1  UNL1        0.0055
     32 C         143.0918  142.2893  166.2942 C.ar    1  UNL1       -0.0019
     33 C         144.0849  143.0636  165.4793 C.ar    1  UNL1       -0.0002
     34 C         143.6088  144.0033  164.4115 C.ar    1  UNL1       -0.0000
     35 C         142.1395  144.1688  164.1587 C.ar    1  UNL1       -0.0002
     36 C         141.1464  143.3945  164.9736 C.ar    1  UNL1       -0.0019
@<TRIPOS>BOND
     1     7     8    2
     2     8     9   am
     3     9     1    1
     4     1     2   ar
     5     2     3   ar
     6     3     4   ar
     7     4    21    1
     8    22    21    1
     9    22    23    1
    10    23    24    1
    11    25    24    1
    12    25    28    1
    13    28    29    1
    14    28    31    1
    15    31    32   ar
    16    32    33   ar
    17    33    34   ar
    18    34    35   ar
    19    35    36   ar
    20    25    26    1
    21     4     5   ar
    22     5     6   ar
    23    11     8    1
    24    11    12    1
    25    12    13    1
    26    13    14    1
    27    14    15   ar
    28    15    16   ar
    29    16    17   ar
    30    17    18   ar
    31    18    19    2
    32    18    20   ar
    33     6     1   ar
    34    20    11    1
    35    26    22    1
    36    20    14   ar
    37    36    31   ar
    38     9    10    1
    39    29    30    1
    40    26    27    1
@<TRIPOS>MOLECULE
*****
 36 40 0 0 0
SMALL
GASTEIGER

@<TRIPOS>ATOM
      1 C         142.9085  138.1205  157.7817 C.ar    1  UNL1        0.0503
      2 C         142.8846  139.4793  157.1468 C.ar    1  UNL1        0.0143
      3 C         142.6390  140.6963  157.9885 C.ar    1  UNL1       -0.0029
      4 C         142.4172  140.5545  159.4652 C.ar    1  UNL1       -0.0208
      5 C         142.4411  139.1957  160.1002 C.ar    1  UNL1       -0.0029
      6 C         142.6867  137.9787  159.2584 C.ar    1  UNL1        0.0143
      7 O         140.6048  136.7076  156.4793 O.2     1  UNL1       -0.2727
      8 C         142.0022  136.1970  156.2887 C.2     1  UNL1        0.2469
      9 N         143.1541  136.9035  156.9399 N.am    1  UNL1       -0.2824
     10 H         144.0714  136.5685  156.8148 H       1  UNL1        0.1549
     11 C         142.2478  134.9800  155.4469 C.3     1  UNL1        0.1648
     12 C         141.8060  134.7866  154.0266 C.3     1  UNL1        0.0383
     13 C         142.2636  133.4298  153.5796 C.3     1  UNL1        0.0463
     14 C         142.9881  132.7847  154.7237 C.ar    1  UNL1        0.0403
     15 C         143.6555  131.4487  154.8637 C.ar    1  UNL1        0.0130
     16 C         144.3131  131.0708  156.1577 C.ar    1  UNL1        0.0060
     17 C         144.3034  132.0289  157.3118 C.ar    1  UNL1        0.0608
     18 C         143.6360  133.3649  157.1719 C.ar    1  UNL1        0.2610
     19 O         143.6263  134.3230  158.3259 O.2     1  UNL1       -0.2670
     20 N         142.9784  133.7428  155.8778 N.ar    1  UNL1       -0.2926
     21 C         142.1716  141.7714  160.3071 C.3     1  UNL1        0.0420
     22 C         140.8249  141.9935  160.9294 C.3     1  UNL1        0.0585
     23 C         139.7953  142.9844  160.4732 C.3     1  UNL1        0.0175
     24 C         138.6055  142.8669  161.3790 C.3     1  UNL1        0.0199
     25 C         138.8997  141.8035  162.3951 C.3     1  UNL1        0.0855
     26 N         140.2714  141.2636  162.1172 N.3     1  UNL1       -0.2971
     27 H         140.2162  140.2653  161.9152 H       1  UNL1        0.1233
     28 C         137.9833  141.3580  163.4958 C.3     1  UNL1        0.1470
     29 O         136.5037  141.2894  163.2582 O.3     1  UNL1       -0.3787
     30 H         136.0604  140.9851  164.0656 H       1  UNL1        0.2108
     31 C         138.5462  140.9810  164.8341 C.ar    1  UNL1        0.0055
     32 C         138.1563  139.6809  165.4725 C.ar    1  UNL1       -0.0019
     33 C         138.7192  139.3039  166.8108 C.ar    1  UNL1       -0.0002
     34 C         139.6720  140.2271  167.5106 C.ar    1  UNL1       -0.0000
     35 C         140.0620  141.5273  166.8722 C.ar    1  UNL1       -0.0002
     36 C         139.4991  141.9043  165.5340 C.ar    1  UNL1       -0.0019
@<TRIPOS>BOND
     1     7     8    2
     2     8     9   am
     3     9     1    1
     4     1     2   ar
     5     2     3   ar
     6     3     4   ar
     7     4    21    1
     8    22    21    1
     9    22    23    1
    10    23    24    1
    11    25    24    1
    12    25    28    1
    13    28    29    1
    14    28    31    1
    15    31    32   ar
    16    32    33   ar
    17    33    34   ar
    18    34    35   ar
    19    35    36   ar
    20    25    26    1
    21     4     5   ar
    22     5     6   ar
    23    11     8    1
    24    11    12    1
    25    12    13    1
    26    13    14    1
    27    14    15   ar
    28    15    16   ar
    29    16    17   ar
    30    17    18   ar
    31    18    19    2
    32    18    20   ar
    33     6     1   ar
    34    20    11    1
    35    26    22    1
    36    20    14   ar
    37    36    31   ar
    38     9    10    1
    39    29    30    1
    40    26    27    1
@<TRIPOS>MOLECULE
*****
 36 40 0 0 0
SMALL
GASTEIGER

@<TRIPOS>ATOM
      1 C         141.0312  139.6761  161.2547 C.ar    1  UNL1        0.0503
      2 C         142.5041  139.7981  160.9984 C.ar    1  UNL1        0.0143
      3 C         143.0444  139.5891  159.6148 C.ar    1  UNL1       -0.0029
      4 C         142.1119  139.2580  158.4876 C.ar    1  UNL1       -0.0208
      5 C         140.6390  139.1360  158.7439 C.ar    1  UNL1       -0.0029
      6 C         140.0986  139.3451  160.1275 C.ar    1  UNL1        0.0143
      7 O         140.3592  137.3125  162.9756 O.2     1  UNL1       -0.2727
      8 C         140.1548  138.7033  163.4987 C.2     1  UNL1        0.2469
      9 N         140.4908  139.8852  162.6383 N.am    1  UNL1       -0.2824
     10 H         140.3567  140.7981  162.9816 H       1  UNL1        0.1549
     11 C         139.6144  138.9124  164.8823 C.3     1  UNL1        0.1648
     12 C         138.3088  138.3926  165.4068 C.3     1  UNL1        0.0383
     13 C         138.1723  138.8369  166.8330 C.3     1  UNL1        0.0463
     14 C         139.3936  139.6313  167.1899 C.ar    1  UNL1        0.0403
     15 C         139.8093  140.3182  168.4569 C.ar    1  UNL1        0.0130
     16 C         141.1162  141.0516  168.5184 C.ar    1  UNL1        0.0060
     17 C         142.0075  141.0983  167.3128 C.ar    1  UNL1        0.0608
     18 C         141.5919  140.4114  166.0458 C.ar    1  UNL1        0.2610
     19 O         142.4832  140.4580  164.8402 O.2     1  UNL1       -0.2670
     20 N         140.2849  139.6779  165.9843 N.ar    1  UNL1       -0.2926
     21 C         142.6521  139.0489  157.1039 C.3     1  UNL1        0.0420
     22 C         143.0931  137.6826  156.6696 C.3     1  UNL1        0.0585
     23 C         143.8832  137.3619  155.4355 C.3     1  UNL1        0.0175
     24 C         144.0998  135.8782  155.3962 C.3     1  UNL1        0.0199
     25 C         143.4436  135.2818  156.6060 C.3     1  UNL1        0.0855
     26 N         142.8214  136.3970  157.3930 N.3     1  UNL1       -0.2971
     27 H         143.2306  136.4320  158.3267 H       1  UNL1        0.1233
     28 C         143.4146  133.8259  156.9657 C.3     1  UNL1        0.1470
     29 O         143.8084  133.3860  158.3447 O.3     1  UNL1       -0.3787
     30 H         143.7342  132.4211  158.4098 H       1  UNL1        0.2108
     31 C         142.9917  132.8097  155.9466 C.ar    1  UNL1        0.0055
     32 C         143.9757  131.7932  155.4481 C.ar    1  UNL1       -0.0019
     33 C         143.5529  130.7770  154.4289 C.ar    1  UNL1       -0.0002
     34 C         142.1461  130.7774  153.9083 C.ar    1  UNL1       -0.0000
     35 C         141.1622  131.7939  154.4069 C.ar    1  UNL1       -0.0002
     36 C         141.5849  132.8101  155.4260 C.ar    1  UNL1       -0.0019
@<TRIPOS>BOND
     1     7     8    2
     2     8     9   am
     3     9     1    1
     4     1     2   ar
     5     2     3   ar
     6     3     4   ar
     7     4    21    1
     8    22    21    1
     9    22    23    1
    10    23    24    1
    11    25    24    1
    12    25    28    1
    13    28    29    1
    14    28    31    1
    15    31    32   ar
    16    32    33   ar
    17    33    34   ar
    18    34    35   ar
    19    35    36   ar
    20    25    26    1
    21     4     5   ar
    22     5     6   ar
    23    11     8    1
    24    11    12    1
    25    12    13    1
    26    13    14    1
    27    14    15   ar
    28    15    16   ar
    29    16    17   ar
    30    17    18   ar
    31    18    19    2
    32    18    20   ar
    33     6     1   ar
    34    20    11    1
    35    26    22    1
    36    20    14   ar
    37    36    31   ar
    38     9    10    1
    39    29    30    1
    40    26    27    1
@<TRIPOS>MOLECULE
*****
 36 40 0 0 0
SMALL
GASTEIGER

@<TRIPOS>ATOM
      1 C         142.9741  138.2399  159.6379 C.ar    1  UNL1        0.0503
      2 C         143.2772  139.6910  159.4093 C.ar    1  UNL1        0.0143
      3 C         143.9328  140.4996  160.4893 C.ar    1  UNL1       -0.0029
      4 C         144.2852  139.8569  161.7980 C.ar    1  UNL1       -0.0208
      5 C         143.9821  138.4057  162.0267 C.ar    1  UNL1       -0.0029
      6 C         143.3265  137.5972  160.9466 C.ar    1  UNL1        0.0143
      7 O         143.9816  138.4082  156.8172 O.2     1  UNL1       -0.2727
      8 C         142.8224  137.5155  157.1474 C.2     1  UNL1        0.2469
      9 N         142.3186  137.4314  158.5579 N.am    1  UNL1       -0.2824
     10 H         141.5577  136.8455  158.7747 H       1  UNL1        0.1549
     11 C         142.1668  136.7070  156.0674 C.3     1  UNL1        0.1648
     12 C         141.3796  137.2520  154.9127 C.3     1  UNL1        0.0383
     13 C         140.9097  136.0933  154.0841 C.3     1  UNL1        0.0463
     14 C         141.4064  134.8322  154.7266 C.ar    1  UNL1        0.0403
     15 C         141.2516  133.3876  154.3540 C.ar    1  UNL1        0.0130
     16 C         141.8737  132.3222  155.2071 C.ar    1  UNL1        0.0060
     17 C         142.6507  132.7015  156.4329 C.ar    1  UNL1        0.0608
     18 C         142.8055  134.1461  156.8055 C.ar    1  UNL1        0.2610
     19 O         143.5824  134.5254  158.0313 O.2     1  UNL1       -0.2670
     20 N         142.1833  135.2115  155.9524 N.ar    1  UNL1       -0.2926
     21 C         144.9407  140.6654  162.8782 C.3     1  UNL1        0.0420
     22 C         144.2945  141.9276  163.3671 C.3     1  UNL1        0.0585
     23 C         144.9095  142.9295  164.2988 C.3     1  UNL1        0.0175
     24 C         143.9149  144.0307  164.5177 C.3     1  UNL1        0.0199
     25 C         142.6851  143.7096  163.7212 C.3     1  UNL1        0.0855
     26 N         142.9197  142.4098  163.0100 N.3     1  UNL1       -0.2971
     27 H         142.8529  142.5498  162.0019 H       1  UNL1        0.1233
     28 C         141.4394  144.5419  163.6485 C.3     1  UNL1        0.1470
     29 O         141.5401  146.0344  163.5361 O.3     1  UNL1       -0.3787
     30 H         140.6494  146.4167  163.5003 H       1  UNL1        0.2108
     31 C         140.0930  143.8820  163.6882 C.ar    1  UNL1        0.0055
     32 C         139.0974  144.1429  162.5970 C.ar    1  UNL1       -0.0019
     33 C         137.7509  143.4830  162.6367 C.ar    1  UNL1       -0.0002
     34 C         137.4001  142.5622  163.7676 C.ar    1  UNL1       -0.0000
     35 C         138.3957  142.3013  164.8588 C.ar    1  UNL1       -0.0002
     36 C         139.7421  142.9611  164.8192 C.ar    1  UNL1       -0.0019
@<TRIPOS>BOND
     1     7     8    2
     2     8     9   am
     3     9     1    1
     4     1     2   ar
     5     2     3   ar
     6     3     4   ar
     7     4    21    1
     8    22    21    1
     9    22    23    1
    10    23    24    1
    11    25    24    1
    12    25    28    1
    13    28    29    1
    14    28    31    1
    15    31    32   ar
    16    32    33   ar
    17    33    34   ar
    18    34    35   ar
    19    35    36   ar
    20    25    26    1
    21     4     5   ar
    22     5     6   ar
    23    11     8    1
    24    11    12    1
    25    12    13    1
    26    13    14    1
    27    14    15   ar
    28    15    16   ar
    29    16    17   ar
    30    17    18   ar
    31    18    19    2
    32    18    20   ar
    33     6     1   ar
    34    20    11    1
    35    26    22    1
    36    20    14   ar
    37    36    31   ar
    38     9    10    1
    39    29    30    1
    40    26    27    1
