@<TRIPOS>MOLECULE
*****
 34 37 0 0 0
SMALL
GASTEIGER

@<TRIPOS>ATOM
      1 N         138.8502  143.6686  163.1519 N.3     1  UNL1       -0.2673
      2 C         138.7940  142.6002  162.1006 C.3     1  UNL1        0.1035
      3 C         138.9738  141.1611  162.4835 C.3     1  UNL1        0.1470
      4 C         139.1537  139.7219  162.8664 C.3     1  UNL1        0.1035
      5 N         139.3898  139.3512  164.3005 N.3     1  UNL1       -0.2684
      6 C         139.4461  140.4197  165.3519 C.3     1  UNL1        0.1035
      7 C         139.2662  141.8588  164.9690 C.3     1  UNL1        0.1470
      8 C         139.0864  143.2979  164.5861 C.3     1  UNL1        0.1035
      9 O         139.2100  140.7904  163.9177 O.3     1  UNL1       -0.3530
     10 C         138.6704  145.1078  162.7691 C.3     1  UNL1        0.0913
     11 C         139.8008  145.8618  162.1340 C.3     1  UNL1        0.1088
     12 N         141.1339  145.9316  162.8183 N.3     1  UNL1       -0.1765
     13 H         141.6103  146.7556  162.4517 H       1  UNL1        0.1489
     14 S         142.0970  144.7875  162.7029 S.O2    1  UNL1        0.0784
     15 O         141.9489  144.8135  161.2105 O.2     1  UNL1       -0.1515
     16 O         142.2450  144.7615  164.1953 O.2     1  UNL1       -0.1515
     17 C         144.1517  140.0404  161.6426 C.3     1  UNL1        0.1321
     18 N         144.0045  141.4613  162.1001 N.ar    1  UNL1       -0.3047
     19 C         145.0798  142.3041  162.7195 C.ar    1  UNL1        0.1800
     20 N         144.4961  143.6526  163.0207 N.ar    1  UNL1       -0.2042
     21 C         143.0601  143.6434  162.5874 C.ar    1  UNL1        0.2215
     22 C         142.7563  142.2891  162.0184 C.ar    1  UNL1        0.1171
     23 C         139.5697  137.9122  164.6834 C.3     1  UNL1        0.0761
     24 C         140.9395  137.3008  164.6805 C.3     1  UNL1        0.0646
     25 C         142.0932  138.0486  164.0808 C.3     1  UNL1        0.2068
     26 O         143.2596  138.4412  164.9383 O.3     1  UNL1       -0.4754
     27 C         143.0857  139.4709  166.0152 C.ar    1  UNL1        0.1386
     28 C         142.8439  139.0412  167.4318 C.ar    1  UNL1        0.0376
     29 C         142.6701  140.0709  168.5085 C.ar    1  UNL1        0.0134
     30 C         142.7381  141.5303  168.1687 C.ar    1  UNL1        0.0686
     31 C         142.9799  141.9601  166.7521 C.ar    1  UNL1        0.0134
     32 C         143.1537  140.9304  165.6753 C.ar    1  UNL1        0.0376
     33 C         142.5642  142.5601  169.2455 C.1     1  UNL1        0.1004
     34 N         142.3904  143.5897  170.3223 N.1     1  UNL1       -0.1908
@<TRIPOS>BOND
     1    17    18    1
     2    18    19   ar
     3    19    20   ar
     4    20    21   ar
     5    21    14    1
     6    14    15    2
     7    14    16    2
     8    14    12    1
     9    12    11    1
    10    11    10    1
    11    10     1    1
    12     1     2    1
    13     2     3    1
    14     3     4    1
    15     4     5    1
    16     5    23    1
    17    23    24    1
    18    24    25    1
    19    25    26    1
    20    26    27    1
    21    27    28   ar
    22    28    29   ar
    23    29    30   ar
    24    30    33    1
    25    33    34    3
    26    30    31   ar
    27    31    32   ar
    28     5     6    1
    29     6     7    1
    30     7     8    1
    31     7     9    1
    32    21    22   ar
    33    22    18   ar
    34     8     1    1
    35     9     3    1
    36    32    27   ar
    37    12    13    1
@<TRIPOS>MOLECULE
*****
 34 37 0 0 0
SMALL
GASTEIGER

@<TRIPOS>ATOM
      1 N         141.2901  144.8902  162.5792 N.3     1  UNL1       -0.2673
      2 C         141.9991  144.9696  163.8986 C.3     1  UNL1        0.1035
      3 C         143.0135  143.9285  164.2688 C.3     1  UNL1        0.1470
      4 C         144.0279  142.8873  164.6390 C.3     1  UNL1        0.1035
      5 N         144.3334  141.7668  163.6897 N.3     1  UNL1       -0.2684
      6 C         143.6244  141.6875  162.3701 C.3     1  UNL1        0.1035
      7 C         142.6100  142.7286  162.0000 C.3     1  UNL1        0.1470
      8 C         141.5956  143.7697  161.6298 C.3     1  UNL1        0.1035
      9 O         143.3189  142.8080  163.3195 O.3     1  UNL1       -0.3530
     10 C         140.2756  145.9313  162.2090 C.3     1  UNL1        0.0913
     11 C         138.9125  145.5169  161.7400 C.3     1  UNL1        0.1088
     12 N         137.9692  144.8347  162.6861 N.3     1  UNL1       -0.1765
     13 H         138.1377  145.2344  163.6092 H       1  UNL1        0.1489
     14 S         138.0141  143.3438  162.8450 S.O2    1  UNL1        0.0784
     15 O         138.3388  143.5087  164.3001 O.2     1  UNL1       -0.1515
     16 O         137.6893  143.1790  161.3899 O.2     1  UNL1       -0.1515
     17 C         137.8284  138.1734  161.7904 C.3     1  UNL1        0.1321
     18 N         137.9736  139.4764  162.5192 N.ar    1  UNL1       -0.3047
     19 C         138.2825  139.6412  163.9778 C.ar    1  UNL1        0.1800
     20 N         138.3352  141.1100  164.2773 N.ar    1  UNL1       -0.2042
     21 C         138.0589  141.8530  163.0039 C.ar    1  UNL1        0.2215
     22 C         137.8355  140.8433  161.9173 C.ar    1  UNL1        0.1171
     23 C         145.3478  140.7258  164.0598 C.3     1  UNL1        0.0761
     24 C         144.9056  139.3293  164.3834 C.3     1  UNL1        0.0646
     25 C         144.0218  139.0782  165.5690 C.3     1  UNL1        0.2068
     26 O         142.5631  139.4214  165.5031 O.3     1  UNL1       -0.4754
     27 C         141.9215  140.1871  166.6221 C.ar    1  UNL1        0.1386
     28 C         140.4954  139.9126  166.9976 C.ar    1  UNL1        0.0376
     29 C         139.8538  140.6783  168.1165 C.ar    1  UNL1        0.0134
     30 C         140.6383  141.7184  168.8601 C.ar    1  UNL1        0.0686
     31 C         142.0644  141.9928  168.4846 C.ar    1  UNL1        0.0134
     32 C         142.7059  141.2272  167.3656 C.ar    1  UNL1        0.0376
     33 C         139.9966  142.4840  169.9791 C.1     1  UNL1        0.1004
     34 N         139.3550  143.2496  171.0981 N.1     1  UNL1       -0.1908
@<TRIPOS>BOND
     1    17    18    1
     2    18    19   ar
     3    19    20   ar
     4    20    21   ar
     5    21    14    1
     6    14    15    2
     7    14    16    2
     8    14    12    1
     9    12    11    1
    10    11    10    1
    11    10     1    1
    12     1     2    1
    13     2     3    1
    14     3     4    1
    15     4     5    1
    16     5    23    1
    17    23    24    1
    18    24    25    1
    19    25    26    1
    20    26    27    1
    21    27    28   ar
    22    28    29   ar
    23    29    30   ar
    24    30    33    1
    25    33    34    3
    26    30    31   ar
    27    31    32   ar
    28     5     6    1
    29     6     7    1
    30     7     8    1
    31     7     9    1
    32    21    22   ar
    33    22    18   ar
    34     8     1    1
    35     9     3    1
    36    32    27   ar
    37    12    13    1
@<TRIPOS>MOLECULE
*****
 34 37 0 0 0
SMALL
GASTEIGER

@<TRIPOS>ATOM
      1 N         139.4852  138.2789  163.4588 N.3     1  UNL1       -0.2673
      2 C         140.9485  137.9618  163.5491 C.3     1  UNL1        0.1035
      3 C         141.7291  138.3628  164.7655 C.3     1  UNL1        0.1470
      4 C         142.5098  138.7638  165.9820 C.3     1  UNL1        0.1035
      5 N         141.8271  139.4819  167.1082 N.3     1  UNL1       -0.2684
      6 C         140.3637  139.7990  167.0179 C.3     1  UNL1        0.1035
      7 C         139.5831  139.3980  165.8014 C.3     1  UNL1        0.1470
      8 C         138.8025  138.9970  164.5850 C.3     1  UNL1        0.1035
      9 O         141.0464  139.0809  165.8917 O.3     1  UNL1       -0.3530
     10 C         138.7045  137.8778  162.2423 C.3     1  UNL1        0.0913
     11 C         137.6005  138.7579  161.7359 C.3     1  UNL1        0.1088
     12 N         137.9269  139.9955  160.9536 N.3     1  UNL1       -0.1765
     13 H         138.7915  139.8043  160.4473 H       1  UNL1        0.1489
     14 S         138.1208  141.3024  161.6637 S.O2    1  UNL1        0.0784
     15 O         139.3477  141.5667  160.8422 O.2     1  UNL1       -0.1515
     16 O         136.8940  141.0380  162.4852 O.2     1  UNL1       -0.1515
     17 C         138.5324  144.9343  165.4742 C.3     1  UNL1        0.1321
     18 N         138.5040  144.2787  164.1254 N.ar    1  UNL1       -0.3047
     19 C         138.7227  144.9620  162.8081 C.ar    1  UNL1        0.1800
     20 N         138.6058  143.9302  161.7257 N.ar    1  UNL1       -0.2042
     21 C         138.3148  142.6092  162.3739 C.ar    1  UNL1        0.2215
     22 C         138.2519  142.8246  163.8571 C.ar    1  UNL1        0.1171
     23 C         142.6077  139.8829  168.3247 C.3     1  UNL1        0.0761
     24 C         142.5039  141.2823  168.8548 C.3     1  UNL1        0.0646
     25 C         142.8251  142.4469  167.9658 C.3     1  UNL1        0.2068
     26 O         143.7295  142.2610  166.7837 O.3     1  UNL1       -0.4754
     27 C         143.3340  142.8066  165.4435 C.ar    1  UNL1        0.1386
     28 C         142.1767  142.2069  164.7014 C.ar    1  UNL1        0.0376
     29 C         141.7813  142.7525  163.3613 C.ar    1  UNL1        0.0134
     30 C         142.5432  143.8980  162.7634 C.ar    1  UNL1        0.0686
     31 C         143.7005  144.4977  163.5056 C.ar    1  UNL1        0.0134
     32 C         144.0959  143.9521  164.8456 C.ar    1  UNL1        0.0376
     33 C         142.1477  144.4436  161.4233 C.1     1  UNL1        0.1004
     34 N         141.7523  144.9893  160.0832 N.1     1  UNL1       -0.1908
@<TRIPOS>BOND
     1    17    18    1
     2    18    19   ar
     3    19    20   ar
     4    20    21   ar
     5    21    14    1
     6    14    15    2
     7    14    16    2
     8    14    12    1
     9    12    11    1
    10    11    10    1
    11    10     1    1
    12     1     2    1
    13     2     3    1
    14     3     4    1
    15     4     5    1
    16     5    23    1
    17    23    24    1
    18    24    25    1
    19    25    26    1
    20    26    27    1
    21    27    28   ar
    22    28    29   ar
    23    29    30   ar
    24    30    33    1
    25    33    34    3
    26    30    31   ar
    27    31    32   ar
    28     5     6    1
    29     6     7    1
    30     7     8    1
    31     7     9    1
    32    21    22   ar
    33    22    18   ar
    34     8     1    1
    35     9     3    1
    36    32    27   ar
    37    12    13    1
@<TRIPOS>MOLECULE
*****
 34 37 0 0 0
SMALL
GASTEIGER

@<TRIPOS>ATOM
      1 N         140.2579  138.5807  161.9238 N.3     1  UNL1       -0.2673
      2 C         141.0285  139.4200  160.9483 C.3     1  UNL1        0.1035
      3 C         142.3299  140.0427  161.3590 C.3     1  UNL1        0.1470
      4 C         143.6313  140.6655  161.7696 C.3     1  UNL1        0.1035
      5 N         144.1620  140.4489  163.1558 N.3     1  UNL1       -0.2684
      6 C         143.3913  139.6096  164.1313 C.3     1  UNL1        0.1035
      7 C         142.0899  138.9869  163.7206 C.3     1  UNL1        0.1470
      8 C         140.7886  138.3642  163.3100 C.3     1  UNL1        0.1035
      9 O         142.8606  139.8261  162.7451 O.3     1  UNL1       -0.3530
     10 C         138.9564  137.9580  161.5132 C.3     1  UNL1        0.0913
     11 C         137.6654  138.6735  161.7799 C.3     1  UNL1        0.1088
     12 N         137.3787  139.9809  161.1027 N.3     1  UNL1       -0.1765
     13 H         137.8764  139.9667  160.2124 H       1  UNL1        0.1489
     14 S         137.7379  141.2706  161.7791 S.O2    1  UNL1        0.0784
     15 O         137.3614  140.6799  163.1054 O.2     1  UNL1       -0.1515
     16 O         138.1144  141.8614  160.4527 O.2     1  UNL1       -0.1515
     17 C         138.6733  144.8998  165.4985 C.3     1  UNL1        0.1321
     18 N         138.5271  144.2285  164.1651 N.ar    1  UNL1       -0.3047
     19 C         138.7728  144.8615  162.8276 C.ar    1  UNL1        0.1800
     20 N         138.5070  143.8305  161.7710 N.ar    1  UNL1       -0.2042
     21 C         138.0971  142.5603  162.4555 C.ar    1  UNL1        0.2215
     22 C         138.1095  142.8063  163.9351 C.ar    1  UNL1        0.1171
     23 C         145.4634  141.0716  163.5664 C.3     1  UNL1        0.0761
     24 C         145.4681  142.3325  164.3789 C.3     1  UNL1        0.0646
     25 C         144.1891  142.8509  164.9665 C.3     1  UNL1        0.2068
     26 O         144.0704  143.0480  166.4488 O.3     1  UNL1       -0.4754
     27 C         142.9256  142.4328  167.1979 C.ar    1  UNL1        0.1386
     28 C         141.6439  142.1201  166.4842 C.ar    1  UNL1        0.0376
     29 C         140.4992  141.5049  167.2333 C.ar    1  UNL1        0.0134
     30 C         140.6362  141.2025  168.6961 C.ar    1  UNL1        0.0686
     31 C         141.9180  141.5153  169.4098 C.ar    1  UNL1        0.0134
     32 C         143.0626  142.1304  168.6607 C.ar    1  UNL1        0.0376
     33 C         139.4915  140.5873  169.4453 C.1     1  UNL1        0.1004
     34 N         138.3468  139.9722  170.1944 N.1     1  UNL1       -0.1908
@<TRIPOS>BOND
     1    17    18    1
     2    18    19   ar
     3    19    20   ar
     4    20    21   ar
     5    21    14    1
     6    14    15    2
     7    14    16    2
     8    14    12    1
     9    12    11    1
    10    11    10    1
    11    10     1    1
    12     1     2    1
    13     2     3    1
    14     3     4    1
    15     4     5    1
    16     5    23    1
    17    23    24    1
    18    24    25    1
    19    25    26    1
    20    26    27    1
    21    27    28   ar
    22    28    29   ar
    23    29    30   ar
    24    30    33    1
    25    33    34    3
    26    30    31   ar
    27    31    32   ar
    28     5     6    1
    29     6     7    1
    30     7     8    1
    31     7     9    1
    32    21    22   ar
    33    22    18   ar
    34     8     1    1
    35     9     3    1
    36    32    27   ar
    37    12    13    1
@<TRIPOS>MOLECULE
*****
 34 37 0 0 0
SMALL
GASTEIGER

@<TRIPOS>ATOM
      1 N         139.7634  142.9068  160.5078 N.3     1  UNL1       -0.2673
      2 C         138.7006  142.8398  161.5641 C.3     1  UNL1        0.1035
      3 C         138.4698  141.5625  162.3158 C.3     1  UNL1        0.1470
      4 C         138.2389  140.2851  163.0676 C.3     1  UNL1        0.1035
      5 N         139.0709  139.0748  162.7630 N.3     1  UNL1       -0.2684
      6 C         140.1337  139.1418  161.7065 C.3     1  UNL1        0.1035
      7 C         140.3645  140.4191  160.9548 C.3     1  UNL1        0.1470
      8 C         140.5953  141.6964  160.2031 C.3     1  UNL1        0.1035
      9 O         139.3017  140.3521  162.0112 O.3     1  UNL1       -0.3530
     10 C         139.9942  144.1842  159.7560 C.3     1  UNL1        0.0913
     11 C         141.2700  144.9487  159.9503 C.3     1  UNL1        0.1088
     12 N         141.6777  145.3907  161.3245 N.3     1  UNL1       -0.1765
     13 H         142.3019  146.1884  161.2042 H       1  UNL1        0.1489
     14 S         142.3726  144.4321  162.2454 S.O2    1  UNL1        0.0784
     15 O         141.4565  144.8397  163.3610 O.2     1  UNL1       -0.1515
     16 O         143.2887  144.0245  161.1298 O.2     1  UNL1       -0.1515
     17 C         144.6969  140.0915  164.1526 C.3     1  UNL1        0.1321
     18 N         144.1360  141.4783  164.0429 N.ar    1  UNL1       -0.3047
     19 C         144.1381  142.5183  165.1239 C.ar    1  UNL1        0.1800
     20 N         143.4778  143.7514  164.5821 N.ar    1  UNL1       -0.2042
     21 C         143.0676  143.4735  163.1663 C.ar    1  UNL1        0.2215
     22 C         143.4744  142.0687  162.8331 C.ar    1  UNL1        0.1171
     23 C         138.8401  137.7974  163.5147 C.3     1  UNL1        0.0761
     24 C         139.4833  137.5884  164.8536 C.3     1  UNL1        0.0646
     25 C         140.9120  137.9905  165.0703 C.3     1  UNL1        0.2068
     26 O         141.3297  139.4161  164.8624 O.3     1  UNL1       -0.4754
     27 C         141.1015  140.4299  165.9442 C.ar    1  UNL1        0.1386
     28 C         141.3960  140.0812  167.3730 C.ar    1  UNL1        0.0376
     29 C         141.1678  141.0950  168.4547 C.ar    1  UNL1        0.0134
     30 C         140.6451  142.4574  168.1076 C.ar    1  UNL1        0.0686
     31 C         140.3505  142.8061  166.6788 C.ar    1  UNL1        0.0134
     32 C         140.5787  141.7923  165.5971 C.ar    1  UNL1        0.0376
     33 C         140.4169  143.4712  169.1894 C.1     1  UNL1        0.1004
     34 N         140.1887  144.4849  170.2712 N.1     1  UNL1       -0.1908
@<TRIPOS>BOND
     1    17    18    1
     2    18    19   ar
     3    19    20   ar
     4    20    21   ar
     5    21    14    1
     6    14    15    2
     7    14    16    2
     8    14    12    1
     9    12    11    1
    10    11    10    1
    11    10     1    1
    12     1     2    1
    13     2     3    1
    14     3     4    1
    15     4     5    1
    16     5    23    1
    17    23    24    1
    18    24    25    1
    19    25    26    1
    20    26    27    1
    21    27    28   ar
    22    28    29   ar
    23    29    30   ar
    24    30    33    1
    25    33    34    3
    26    30    31   ar
    27    31    32   ar
    28     5     6    1
    29     6     7    1
    30     7     8    1
    31     7     9    1
    32    21    22   ar
    33    22    18   ar
    34     8     1    1
    35     9     3    1
    36    32    27   ar
    37    12    13    1
@<TRIPOS>MOLECULE
*****
 34 37 0 0 0
SMALL
GASTEIGER

@<TRIPOS>ATOM
      1 N         140.5685  142.6391  158.8431 N.3     1  UNL1       -0.2673
      2 C         139.0847  142.5819  159.0549 C.3     1  UNL1        0.1035
      3 C         138.4884  141.4914  159.8946 C.3     1  UNL1        0.1470
      4 C         137.8921  140.4008  160.7344 C.3     1  UNL1        0.1035
      5 N         138.7796  139.3675  161.3624 N.3     1  UNL1       -0.2684
      6 C         140.2636  139.4247  161.1506 C.3     1  UNL1        0.1035
      7 C         140.8598  140.5152  160.3108 C.3     1  UNL1        0.1470
      8 C         141.4561  141.6057  159.4711 C.3     1  UNL1        0.1035
      9 O         139.3760  140.4580  160.5226 O.3     1  UNL1       -0.3530
     10 C         141.1649  143.7296  158.0034 C.3     1  UNL1        0.0913
     11 C         141.0916  145.1555  158.4633 C.3     1  UNL1        0.1088
     12 N         141.6309  145.5379  159.8098 N.3     1  UNL1       -0.1765
     13 H         142.5558  145.1149  159.8875 H       1  UNL1        0.1489
     14 S         140.8785  145.1649  161.0526 S.O2    1  UNL1        0.0784
     15 O         142.1017  144.4818  161.5882 O.2     1  UNL1       -0.1515
     16 O         139.6552  145.8481  160.5170 O.2     1  UNL1       -0.1515
     17 C         139.7548  143.4491  165.9182 C.3     1  UNL1        0.1321
     18 N         139.6095  144.0033  164.5319 N.ar    1  UNL1       -0.3047
     19 C         138.3266  144.4329  163.8840 C.ar    1  UNL1        0.1800
     20 N         138.6458  144.9203  162.5018 N.ar    1  UNL1       -0.2042
     21 C         140.1260  144.7920  162.2954 C.ar    1  UNL1        0.2215
     22 C         140.7216  144.2253  163.5501 C.ar    1  UNL1        0.1171
     23 C         138.1834  138.2770  162.2021 C.3     1  UNL1        0.0761
     24 C         139.0096  137.6089  163.2609 C.3     1  UNL1        0.0646
     25 C         139.0909  138.2039  164.6354 C.3     1  UNL1        0.2068
     26 O         140.2864  139.0193  165.0302 O.3     1  UNL1       -0.4754
     27 C         140.3622  139.6243  166.4007 C.ar    1  UNL1        0.1386
     28 C         139.1657  139.5866  167.3045 C.ar    1  UNL1        0.0376
     29 C         139.2416  140.1915  168.6749 C.ar    1  UNL1        0.0134
     30 C         140.5140  140.8343  169.1416 C.ar    1  UNL1        0.0686
     31 C         141.7106  140.8720  168.2378 C.ar    1  UNL1        0.0134
     32 C         141.6347  140.2671  166.8674 C.ar    1  UNL1        0.0376
     33 C         140.5899  141.4393  170.5121 C.1     1  UNL1        0.1004
     34 N         140.6658  142.0443  171.8826 N.1     1  UNL1       -0.1908
@<TRIPOS>BOND
     1    17    18    1
     2    18    19   ar
     3    19    20   ar
     4    20    21   ar
     5    21    14    1
     6    14    15    2
     7    14    16    2
     8    14    12    1
     9    12    11    1
    10    11    10    1
    11    10     1    1
    12     1     2    1
    13     2     3    1
    14     3     4    1
    15     4     5    1
    16     5    23    1
    17    23    24    1
    18    24    25    1
    19    25    26    1
    20    26    27    1
    21    27    28   ar
    22    28    29   ar
    23    29    30   ar
    24    30    33    1
    25    33    34    3
    26    30    31   ar
    27    31    32   ar
    28     5     6    1
    29     6     7    1
    30     7     8    1
    31     7     9    1
    32    21    22   ar
    33    22    18   ar
    34     8     1    1
    35     9     3    1
    36    32    27   ar
    37    12    13    1
@<TRIPOS>MOLECULE
*****
 34 37 0 0 0
SMALL
GASTEIGER

@<TRIPOS>ATOM
      1 N         140.9793  144.2923  163.1019 N.3     1  UNL1       -0.2673
      2 C         140.2670  143.5744  164.2096 C.3     1  UNL1        0.1035
      3 C         139.4344  142.3644  163.9055 C.3     1  UNL1        0.1470
      4 C         138.6017  141.1543  163.6014 C.3     1  UNL1        0.1035
      5 N         138.4812  140.6623  162.1895 N.3     1  UNL1       -0.2684
      6 C         139.1936  141.3803  161.0817 C.3     1  UNL1        0.1035
      7 C         140.0262  142.5903  161.3858 C.3     1  UNL1        0.1470
      8 C         140.8589  143.8003  161.6900 C.3     1  UNL1        0.1035
      9 O         139.3140  141.8723  162.4936 O.3     1  UNL1       -0.3530
     10 C         141.8120  145.5024  163.4060 C.3     1  UNL1        0.0913
     11 C         143.2311  145.3404  163.8642 C.3     1  UNL1        0.1088
     12 N         144.2164  144.6025  163.0070 N.3     1  UNL1       -0.1765
     13 H         144.0103  144.8522  162.0398 H       1  UNL1        0.1489
     14 S         144.2849  143.1051  163.0624 S.O2    1  UNL1        0.0784
     15 O         144.1819  143.1557  164.5580 O.2     1  UNL1       -0.1515
     16 O         144.3879  143.0545  161.5668 O.2     1  UNL1       -0.1515
     17 C         143.7861  138.0048  161.7901 C.3     1  UNL1        0.1321
     18 N         144.1241  139.2633  162.5329 N.ar    1  UNL1       -0.3047
     19 C         144.7934  139.3435  163.8730 C.ar    1  UNL1        0.1800
     20 N         144.9351  140.7924  164.2344 N.ar    1  UNL1       -0.2042
     21 C         144.3534  141.6077  163.1178 C.ar    1  UNL1        0.2215
     22 C         143.8522  140.6627  162.0662 C.ar    1  UNL1        0.1171
     23 C         137.6486  139.4523  161.8854 C.3     1  UNL1        0.0761
     24 C         138.2690  138.0870  161.9193 C.3     1  UNL1        0.0646
     25 C         139.7105  137.9276  162.3024 C.3     1  UNL1        0.2068
     26 O         140.0724  137.2959  163.6139 O.3     1  UNL1       -0.4754
     27 C         139.8900  138.0615  164.8909 C.ar    1  UNL1        0.1386
     28 C         141.0284  138.8569  165.4577 C.ar    1  UNL1        0.0376
     29 C         140.8459  139.6224  166.7346 C.ar    1  UNL1        0.0134
     30 C         139.5250  139.5926  167.4447 C.ar    1  UNL1        0.0686
     31 C         138.3865  138.7972  166.8779 C.ar    1  UNL1        0.0134
     32 C         138.5690  138.0317  165.6010 C.ar    1  UNL1        0.0376
     33 C         139.3425  140.3582  168.7217 C.1     1  UNL1        0.1004
     34 N         139.1601  141.1238  169.9986 N.1     1  UNL1       -0.1908
@<TRIPOS>BOND
     1    17    18    1
     2    18    19   ar
     3    19    20   ar
     4    20    21   ar
     5    21    14    1
     6    14    15    2
     7    14    16    2
     8    14    12    1
     9    12    11    1
    10    11    10    1
    11    10     1    1
    12     1     2    1
    13     2     3    1
    14     3     4    1
    15     4     5    1
    16     5    23    1
    17    23    24    1
    18    24    25    1
    19    25    26    1
    20    26    27    1
    21    27    28   ar
    22    28    29   ar
    23    29    30   ar
    24    30    33    1
    25    33    34    3
    26    30    31   ar
    27    31    32   ar
    28     5     6    1
    29     6     7    1
    30     7     8    1
    31     7     9    1
    32    21    22   ar
    33    22    18   ar
    34     8     1    1
    35     9     3    1
    36    32    27   ar
    37    12    13    1
@<TRIPOS>MOLECULE
*****
 34 37 0 0 0
SMALL
GASTEIGER

@<TRIPOS>ATOM
      1 N         143.2607  140.7372  161.2531 N.3     1  UNL1       -0.2673
      2 C         141.8681  140.7296  160.6959 C.3     1  UNL1        0.1035
      3 C         140.7919  139.9379  161.3777 C.3     1  UNL1        0.1470
      4 C         139.7156  139.1462  162.0596 C.3     1  UNL1        0.1035
      5 N         140.0320  138.3622  163.2986 N.3     1  UNL1       -0.2684
      6 C         141.4247  138.3699  163.8558 C.3     1  UNL1        0.1035
      7 C         142.5009  139.1615  163.1740 C.3     1  UNL1        0.1470
      8 C         143.5771  139.9532  162.4921 C.3     1  UNL1        0.1035
      9 O         141.1083  139.1539  162.6168 O.3     1  UNL1       -0.3530
     10 C         144.3371  141.5289  160.5712 C.3     1  UNL1        0.0913
     11 C         144.2693  143.0273  160.5541 C.3     1  UNL1        0.1088
     12 N         144.0855  143.7845  161.8359 N.3     1  UNL1       -0.1765
     13 H         144.5177  143.2264  162.5722 H       1  UNL1        0.1489
     14 S         142.7056  144.1326  162.3100 S.O2    1  UNL1        0.0784
     15 O         143.0924  143.7587  163.7102 O.2     1  UNL1       -0.1515
     16 O         142.3189  144.5065  160.9098 O.2     1  UNL1       -0.1515
     17 C         138.5261  144.9546  165.4304 C.3     1  UNL1        0.1321
     18 N         139.4047  144.8586  164.2184 N.ar    1  UNL1       -0.3047
     19 C         139.0001  145.1745  162.8089 C.ar    1  UNL1        0.1800
     20 N         140.1875  144.9410  161.9225 N.ar    1  UNL1       -0.2042
     21 C         141.3258  144.4808  162.7841 C.ar    1  UNL1        0.2215
     22 C         140.8420  144.4299  164.2030 C.ar    1  UNL1        0.1171
     23 C         138.9558  137.5705  163.9805 C.3     1  UNL1        0.0761
     24 C         138.8466  137.5863  165.4765 C.3     1  UNL1        0.0646
     25 C         138.0413  138.6521  166.1585 C.3     1  UNL1        0.2068
     26 O         138.4370  140.0927  166.0240 O.3     1  UNL1       -0.4754
     27 C         139.6174  140.6204  166.7845 C.ar    1  UNL1        0.1386
     28 C         139.7248  140.3832  168.2617 C.ar    1  UNL1        0.0376
     29 C         140.9051  140.9110  169.0221 C.ar    1  UNL1        0.0134
     30 C         141.9780  141.6759  168.3053 C.ar    1  UNL1        0.0686
     31 C         141.8706  141.9131  166.8281 C.ar    1  UNL1        0.0134
     32 C         140.6903  141.3854  166.0677 C.ar    1  UNL1        0.0376
     33 C         143.1584  142.2037  169.0658 C.1     1  UNL1        0.1004
     34 N         144.3386  142.7315  169.8263 N.1     1  UNL1       -0.1908
@<TRIPOS>BOND
     1    17    18    1
     2    18    19   ar
     3    19    20   ar
     4    20    21   ar
     5    21    14    1
     6    14    15    2
     7    14    16    2
     8    14    12    1
     9    12    11    1
    10    11    10    1
    11    10     1    1
    12     1     2    1
    13     2     3    1
    14     3     4    1
    15     4     5    1
    16     5    23    1
    17    23    24    1
    18    24    25    1
    19    25    26    1
    20    26    27    1
    21    27    28   ar
    22    28    29   ar
    23    29    30   ar
    24    30    33    1
    25    33    34    3
    26    30    31   ar
    27    31    32   ar
    28     5     6    1
    29     6     7    1
    30     7     8    1
    31     7     9    1
    32    21    22   ar
    33    22    18   ar
    34     8     1    1
    35     9     3    1
    36    32    27   ar
    37    12    13    1
@<TRIPOS>MOLECULE
*****
 34 37 0 0 0
SMALL
GASTEIGER

@<TRIPOS>ATOM
      1 N         144.1747  140.5194  163.6214 N.3     1  UNL1       -0.2673
      2 C         143.1902  140.2523  162.5217 C.3     1  UNL1        0.1035
      3 C         142.4331  141.3885  161.9006 C.3     1  UNL1        0.1470
      4 C         141.6759  142.5247  161.2794 C.3     1  UNL1        0.1035
      5 N         141.9033  143.9280  161.7581 N.3     1  UNL1       -0.2684
      6 C         142.8879  144.1951  162.8578 C.3     1  UNL1        0.1035
      7 C         143.6450  143.0589  163.4789 C.3     1  UNL1        0.1470
      8 C         144.4021  141.9227  164.1000 C.3     1  UNL1        0.1035
      9 O         142.6605  142.7918  162.3792 O.3     1  UNL1       -0.3530
     10 C         144.9318  139.3831  164.2426 C.3     1  UNL1        0.0913
     11 C         144.4099  138.7245  165.4850 C.3     1  UNL1        0.1088
     12 N         142.9646  138.8686  165.8598 N.3     1  UNL1       -0.1765
     13 H         142.5072  139.3534  165.0878 H       1  UNL1        0.1489
     14 S         142.5842  139.5969  167.1147 S.O2    1  UNL1        0.0784
     15 O         143.3013  138.5635  167.9319 O.2     1  UNL1       -0.1515
     16 O         141.8672  140.6304  166.2975 O.2     1  UNL1       -0.1515
     17 C         139.9929  142.6384  170.5664 C.3     1  UNL1        0.1321
     18 N         141.0127  141.7233  169.9562 N.ar    1  UNL1       -0.3047
     19 C         142.2243  141.1689  170.6452 C.ar    1  UNL1        0.1800
     20 N         142.9605  140.3049  169.6646 N.ar    1  UNL1       -0.2042
     21 C         142.2039  140.3253  168.3696 C.ar    1  UNL1        0.2215
     22 C         141.0001  141.2019  168.5498 C.ar    1  UNL1        0.1171
     23 C         141.1462  145.0642  161.1370 C.3     1  UNL1        0.0761
     24 C         140.2841  145.9465  161.9905 C.3     1  UNL1        0.0646
     25 C         138.8893  145.5201  162.3405 C.3     1  UNL1        0.2068
     26 O         138.3739  144.1892  161.8791 O.3     1  UNL1       -0.4754
     27 C         138.3222  143.0330  162.8334 C.ar    1  UNL1        0.1386
     28 C         138.9112  143.1670  164.2064 C.ar    1  UNL1        0.0376
     29 C         138.8595  142.0109  165.1607 C.ar    1  UNL1        0.0134
     30 C         138.2189  140.7208  164.7420 C.ar    1  UNL1        0.0686
     31 C         137.6299  140.5869  163.3690 C.ar    1  UNL1        0.0134
     32 C         137.6816  141.7430  162.4147 C.ar    1  UNL1        0.0376
     33 C         138.1672  139.5646  165.6963 C.1     1  UNL1        0.1004
     34 N         138.1156  138.4085  166.6506 N.1     1  UNL1       -0.1908
@<TRIPOS>BOND
     1    17    18    1
     2    18    19   ar
     3    19    20   ar
     4    20    21   ar
     5    21    14    1
     6    14    15    2
     7    14    16    2
     8    14    12    1
     9    12    11    1
    10    11    10    1
    11    10     1    1
    12     1     2    1
    13     2     3    1
    14     3     4    1
    15     4     5    1
    16     5    23    1
    17    23    24    1
    18    24    25    1
    19    25    26    1
    20    26    27    1
    21    27    28   ar
    22    28    29   ar
    23    29    30   ar
    24    30    33    1
    25    33    34    3
    26    30    31   ar
    27    31    32   ar
    28     5     6    1
    29     6     7    1
    30     7     8    1
    31     7     9    1
    32    21    22   ar
    33    22    18   ar
    34     8     1    1
    35     9     3    1
    36    32    27   ar
    37    12    13    1
