@<TRIPOS>MOLECULE
*****
 29 32 0 0 0
SMALL
GASTEIGER

@<TRIPOS>ATOM
      1 C         138.5890  141.7345  161.3116 C.3     1  UNL1        0.0501
      2 C         139.4225  142.4266  162.3491 C.ar    1  UNL1        0.0404
      3 C         140.0372  143.7888  162.2213 C.ar    1  UNL1        0.0074
      4 C         140.7822  144.0821  163.4897 C.ar    1  UNL1        0.0158
      5 C         140.6280  142.9010  164.4015 C.ar    1  UNL1        0.0647
      6 N         139.7876  141.8778  163.6965 N.ar    1  UNL1       -0.2957
      7 C         139.3833  140.5407  164.2430 C.ar    1  UNL1        0.1476
      8 C         138.4097  140.4589  165.3811 C.ar    1  UNL1        0.0397
      9 C         138.0054  139.1218  165.9277 C.ar    1  UNL1        0.0343
     10 C         138.5748  137.8664  165.3360 C.ar    1  UNL1        0.1593
     11 F         138.1706  136.5293  165.8826 F       1  UNL1       -0.2025
     12 C         139.5485  137.9483  164.1979 C.ar    1  UNL1        0.1300
     13 N         139.9527  139.2854  163.6514 N.ar    1  UNL1       -0.2241
     14 C         141.2116  142.7667  165.7767 C.ar    1  UNL1        0.0161
     15 C         140.3425  142.9651  166.9830 C.ar    1  UNL1        0.0011
     16 C         140.9261  142.8308  168.3582 C.ar    1  UNL1       -0.0042
     17 C         142.3789  142.4980  168.5272 C.ar    1  UNL1       -0.0225
     18 C         143.2481  142.2995  167.3209 C.ar    1  UNL1       -0.0042
     19 C         142.6644  142.4339  165.9457 C.ar    1  UNL1        0.0011
     20 C         142.9625  142.3637  169.9024 C.3     1  UNL1        0.0224
     21 C         142.0842  141.9781  171.0556 C.3     1  UNL1        0.0047
     22 C         144.4245  142.6150  170.1246 C.3     1  UNL1        0.0047
     23 C         139.9263  144.6982  161.0336 C.3     1  UNL1        0.1004
     24 N         140.9094  144.5831  159.9064 N.3     1  UNL1       -0.2646
     25 C         141.9846  143.5383  159.9528 C.3     1  UNL1        0.1049
     26 C         142.9676  143.4232  158.8257 C.3     1  UNL1        0.1595
     27 O         142.8754  144.3530  157.6522 O.3     1  UNL1       -0.3508
     28 C         141.8002  145.3978  157.6058 C.3     1  UNL1        0.1595
     29 C         140.8172  145.5129  158.7329 C.3     1  UNL1        0.1049
@<TRIPOS>BOND
     1     1     2    1
     2     2     3   ar
     3     3    23    1
     4    23    24    1
     5    24    25    1
     6    25    26    1
     7    26    27    1
     8    27    28    1
     9    28    29    1
    10     3     4   ar
    11     4     5   ar
    12     5    14    1
    13    14    15   ar
    14    15    16   ar
    15    16    17   ar
    16    17    20    1
    17    20    21    1
    18    20    22    1
    19    17    18   ar
    20    18    19   ar
    21     5     6   ar
    22     6     7    1
    23     7     8   ar
    24     8     9   ar
    25     9    10   ar
    26    10    11    1
    27    10    12   ar
    28    12    13   ar
    29     6     2   ar
    30    13     7   ar
    31    29    24    1
    32    19    14   ar
@<TRIPOS>MOLECULE
*****
 29 32 0 0 0
SMALL
GASTEIGER

@<TRIPOS>ATOM
      1 C         141.5080  140.3493  160.6445 C.3     1  UNL1        0.0501
      2 C         141.9078  141.2341  161.7879 C.ar    1  UNL1        0.0404
      3 C         142.7538  142.4690  161.6932 C.ar    1  UNL1        0.0074
      4 C         142.9007  143.0374  163.0736 C.ar    1  UNL1        0.0158
      5 C         142.1454  142.1536  164.0215 C.ar    1  UNL1        0.0647
      6 N         141.5318  141.0391  163.2269 N.ar    1  UNL1       -0.2957
      7 C         140.6899  139.9252  163.7750 C.ar    1  UNL1        0.1476
      8 C         141.3141  138.5978  164.0889 C.ar    1  UNL1        0.0397
      9 C         140.4723  137.4839  164.6371 C.ar    1  UNL1        0.0343
     10 C         139.0061  137.6973  164.8714 C.ar    1  UNL1        0.1593
     11 F         138.1642  136.5834  165.4196 F       1  UNL1       -0.2025
     12 C         138.3819  139.0247  164.5575 C.ar    1  UNL1        0.1300
     13 N         139.2238  140.1386  164.0093 N.ar    1  UNL1       -0.2241
     14 C         142.0249  142.3499  165.5037 C.ar    1  UNL1        0.0161
     15 C         140.6977  142.7001  166.1084 C.ar    1  UNL1        0.0011
     16 C         140.5772  142.8964  167.5906 C.ar    1  UNL1       -0.0042
     17 C         141.7840  142.7425  168.4681 C.ar    1  UNL1       -0.0225
     18 C         143.1112  142.3923  167.8634 C.ar    1  UNL1       -0.0042
     19 C         143.2317  142.1960  166.3812 C.ar    1  UNL1        0.0011
     20 C         141.6635  142.9388  169.9503 C.3     1  UNL1        0.0224
     21 C         140.3173  142.8730  170.6085 C.3     1  UNL1        0.0047
     22 C         142.8892  143.2008  170.7742 C.3     1  UNL1        0.0047
     23 C         143.3486  143.0361  160.4383 C.3     1  UNL1        0.1004
     24 N         142.5152  143.8970  159.5358 N.3     1  UNL1       -0.2646
     25 C         141.3703  144.6858  160.0988 C.3     1  UNL1        0.1049
     26 C         140.5370  145.5466  159.1963 C.3     1  UNL1        0.1595
     27 O         140.8485  145.6185  157.7308 O.3     1  UNL1       -0.3508
     28 C         141.9934  144.8297  157.1678 C.3     1  UNL1        0.1595
     29 C         142.8267  143.9689  158.0703 C.3     1  UNL1        0.1049
@<TRIPOS>BOND
     1     1     2    1
     2     2     3   ar
     3     3    23    1
     4    23    24    1
     5    24    25    1
     6    25    26    1
     7    26    27    1
     8    27    28    1
     9    28    29    1
    10     3     4   ar
    11     4     5   ar
    12     5    14    1
    13    14    15   ar
    14    15    16   ar
    15    16    17   ar
    16    17    20    1
    17    20    21    1
    18    20    22    1
    19    17    18   ar
    20    18    19   ar
    21     5     6   ar
    22     6     7    1
    23     7     8   ar
    24     8     9   ar
    25     9    10   ar
    26    10    11    1
    27    10    12   ar
    28    12    13   ar
    29     6     2   ar
    30    13     7   ar
    31    29    24    1
    32    19    14   ar
@<TRIPOS>MOLECULE
*****
 29 32 0 0 0
SMALL
GASTEIGER

@<TRIPOS>ATOM
      1 C         143.9496  140.6611  160.8009 C.3     1  UNL1        0.0501
      2 C         143.2154  139.9818  161.9186 C.ar    1  UNL1        0.0404
      3 C         142.6685  138.5853  161.8938 C.ar    1  UNL1        0.0074
      4 C         142.0144  138.3201  163.2174 C.ar    1  UNL1        0.0158
      5 C         142.1570  139.5527  164.0602 C.ar    1  UNL1        0.0647
      6 N         142.8993  140.5797  163.2575 N.ar    1  UNL1       -0.2957
      7 C         143.2619  141.9619  163.7136 C.ar    1  UNL1        0.1476
      8 C         144.3038  142.1520  164.7758 C.ar    1  UNL1        0.0397
      9 C         144.6664  143.5342  165.2320 C.ar    1  UNL1        0.0343
     10 C         143.9870  144.7264  164.6259 C.ar    1  UNL1        0.1593
     11 F         144.3495  146.1086  165.0820 F       1  UNL1       -0.2025
     12 C         142.9451  144.5362  163.5637 C.ar    1  UNL1        0.1300
     13 N         142.5825  143.1540  163.1076 N.ar    1  UNL1       -0.2241
     14 C         141.6469  139.7276  165.4599 C.ar    1  UNL1        0.0161
     15 C         142.5675  139.5179  166.6254 C.ar    1  UNL1        0.0011
     16 C         142.0574  139.6928  168.0251 C.ar    1  UNL1       -0.0042
     17 C         140.6267  140.0774  168.2593 C.ar    1  UNL1       -0.0225
     18 C         139.7060  140.2871  167.0939 C.ar    1  UNL1       -0.0042
     19 C         140.2161  140.1122  165.6942 C.ar    1  UNL1        0.0011
     20 C         140.1166  140.2523  169.6590 C.3     1  UNL1        0.0224
     21 C         141.0816  140.4582  170.7887 C.3     1  UNL1        0.0047
     22 C         138.6414  140.2213  169.9290 C.3     1  UNL1        0.0047
     23 C         142.7597  137.6230  160.7469 C.3     1  UNL1        0.1004
     24 N         142.0417  137.9162  159.4629 N.3     1  UNL1       -0.2646
     25 C         140.6939  138.5739  159.4906 C.3     1  UNL1        0.1049
     26 C         139.9759  138.8671  158.2067 C.3     1  UNL1        0.1595
     27 O         140.6057  138.5025  156.8950 O.3     1  UNL1       -0.3508
     28 C         141.9535  137.8448  156.8673 C.3     1  UNL1        0.1595
     29 C         142.6715  137.5516  158.1512 C.3     1  UNL1        0.1049
@<TRIPOS>BOND
     1     1     2    1
     2     2     3   ar
     3     3    23    1
     4    23    24    1
     5    24    25    1
     6    25    26    1
     7    26    27    1
     8    27    28    1
     9    28    29    1
    10     3     4   ar
    11     4     5   ar
    12     5    14    1
    13    14    15   ar
    14    15    16   ar
    15    16    17   ar
    16    17    20    1
    17    20    21    1
    18    20    22    1
    19    17    18   ar
    20    18    19   ar
    21     5     6   ar
    22     6     7    1
    23     7     8   ar
    24     8     9   ar
    25     9    10   ar
    26    10    11    1
    27    10    12   ar
    28    12    13   ar
    29     6     2   ar
    30    13     7   ar
    31    29    24    1
    32    19    14   ar
@<TRIPOS>MOLECULE
*****
 29 32 0 0 0
SMALL
GASTEIGER

@<TRIPOS>ATOM
      1 C         143.3158  139.7544  158.3240 C.3     1  UNL1        0.0501
      2 C         142.1435  139.3437  159.1649 C.ar    1  UNL1        0.0404
      3 C         140.8948  138.6756  158.6706 C.ar    1  UNL1        0.0074
      4 C         139.9937  138.4480  159.8479 C.ar    1  UNL1        0.0158
      5 C         140.6854  138.9755  161.0699 C.ar    1  UNL1        0.0647
      6 N         142.0141  139.5291  160.6477 N.ar    1  UNL1       -0.2957
      7 C         143.0343  140.1576  161.5501 C.ar    1  UNL1        0.1476
      8 C         143.7585  139.3198  162.5618 C.ar    1  UNL1        0.0397
      9 C         144.7786  139.9483  163.4641 C.ar    1  UNL1        0.0343
     10 C         145.0746  141.4148  163.3547 C.ar    1  UNL1        0.1593
     11 F         146.0948  142.0434  164.2570 F       1  UNL1       -0.2025
     12 C         144.3504  142.2526  162.3430 C.ar    1  UNL1        0.1300
     13 N         143.3303  141.6241  161.4407 N.ar    1  UNL1       -0.2241
     14 C         140.1436  138.9533  162.4685 C.ar    1  UNL1        0.0161
     15 C         140.1148  137.6681  163.2413 C.ar    1  UNL1        0.0011
     16 C         139.5730  137.6459  164.6399 C.ar    1  UNL1       -0.0042
     17 C         139.0601  138.9089  165.2656 C.ar    1  UNL1       -0.0225
     18 C         139.0889  140.1942  164.4927 C.ar    1  UNL1       -0.0042
     19 C         139.6306  140.2164  163.0942 C.ar    1  UNL1        0.0011
     20 C         138.5183  138.8867  166.6641 C.3     1  UNL1        0.0224
     21 C         137.4123  137.9400  167.0250 C.3     1  UNL1        0.0047
     22 C         139.0825  139.8114  167.7018 C.3     1  UNL1        0.0047
     23 C         140.5992  138.3008  157.2486 C.3     1  UNL1        0.1004
     24 N         141.1777  137.0443  156.6683 N.3     1  UNL1       -0.2646
     25 C         142.4407  136.4681  157.2364 C.3     1  UNL1        0.1049
     26 C         143.0192  135.2117  156.6561 C.3     1  UNL1        0.1595
     27 O         142.3347  134.5316  155.5076 O.3     1  UNL1       -0.3508
     28 C         141.0717  135.1078  154.9395 C.3     1  UNL1        0.1595
     29 C         140.4933  136.3642  155.5198 C.3     1  UNL1        0.1049
@<TRIPOS>BOND
     1     1     2    1
     2     2     3   ar
     3     3    23    1
     4    23    24    1
     5    24    25    1
     6    25    26    1
     7    26    27    1
     8    27    28    1
     9    28    29    1
    10     3     4   ar
    11     4     5   ar
    12     5    14    1
    13    14    15   ar
    14    15    16   ar
    15    16    17   ar
    16    17    20    1
    17    20    21    1
    18    20    22    1
    19    17    18   ar
    20    18    19   ar
    21     5     6   ar
    22     6     7    1
    23     7     8   ar
    24     8     9   ar
    25     9    10   ar
    26    10    11    1
    27    10    12   ar
    28    12    13   ar
    29     6     2   ar
    30    13     7   ar
    31    29    24    1
    32    19    14   ar
@<TRIPOS>MOLECULE
*****
 29 32 0 0 0
SMALL
GASTEIGER

@<TRIPOS>ATOM
      1 C         141.9284  143.7973  160.7791 C.3     1  UNL1        0.0501
      2 C         142.6235  143.0387  161.8706 C.ar    1  UNL1        0.0404
      3 C         143.9915  142.4290  161.7874 C.ar    1  UNL1        0.0074
      4 C         144.2861  141.7702  163.1024 C.ar    1  UNL1        0.0158
      5 C         143.1003  141.9727  163.9983 C.ar    1  UNL1        0.0647
      6 N         142.0727  142.7567  163.2370 N.ar    1  UNL1       -0.2957
      7 C         140.7301  143.1838  163.7518 C.ar    1  UNL1        0.1476
      8 C         140.5636  144.5343  164.3830 C.ar    1  UNL1        0.0397
      9 C         139.2210  144.9614  164.8978 C.ar    1  UNL1        0.0343
     10 C         138.0447  144.0378  164.7813 C.ar    1  UNL1        0.1593
     11 F         136.7021  144.4648  165.2961 F       1  UNL1       -0.2025
     12 C         138.2112  142.6873  164.1502 C.ar    1  UNL1        0.1300
     13 N         139.5538  142.2603  163.6354 N.ar    1  UNL1       -0.2241
     14 C         142.9656  141.4781  165.4080 C.ar    1  UNL1        0.0161
     15 C         143.1111  142.4334  166.5552 C.ar    1  UNL1        0.0011
     16 C         142.9764  141.9388  167.9648 C.ar    1  UNL1       -0.0042
     17 C         142.6962  140.4888  168.2273 C.ar    1  UNL1       -0.0225
     18 C         142.5506  139.5334  167.0802 C.ar    1  UNL1       -0.0042
     19 C         142.6853  140.0280  165.6705 C.ar    1  UNL1        0.0011
     20 C         142.5615  139.9942  169.6370 C.3     1  UNL1        0.0224
     21 C         142.7693  138.5410  169.9450 C.3     1  UNL1        0.0047
     22 C         142.2189  140.9528  170.7387 C.3     1  UNL1        0.0047
     23 C         144.9045  142.4708  160.5981 C.3     1  UNL1        0.1004
     24 N         144.4979  141.8053  159.3167 N.3     1  UNL1       -0.2646
     25 C         144.8053  142.4586  158.0019 C.3     1  UNL1        0.1049
     26 C         144.3987  141.7931  156.7206 C.3     1  UNL1        0.1595
     27 O         143.6848  140.4743  156.7541 O.3     1  UNL1       -0.3508
     28 C         143.3775  139.8210  158.0688 C.3     1  UNL1        0.1595
     29 C         143.7841  140.4865  159.3501 C.3     1  UNL1        0.1049
@<TRIPOS>BOND
     1     1     2    1
     2     2     3   ar
     3     3    23    1
     4    23    24    1
     5    24    25    1
     6    25    26    1
     7    26    27    1
     8    27    28    1
     9    28    29    1
    10     3     4   ar
    11     4     5   ar
    12     5    14    1
    13    14    15   ar
    14    15    16   ar
    15    16    17   ar
    16    17    20    1
    17    20    21    1
    18    20    22    1
    19    17    18   ar
    20    18    19   ar
    21     5     6   ar
    22     6     7    1
    23     7     8   ar
    24     8     9   ar
    25     9    10   ar
    26    10    11    1
    27    10    12   ar
    28    12    13   ar
    29     6     2   ar
    30    13     7   ar
    31    29    24    1
    32    19    14   ar
@<TRIPOS>MOLECULE
*****
 29 32 0 0 0
SMALL
GASTEIGER

@<TRIPOS>ATOM
      1 C         142.5923  139.5086  158.4365 C.3     1  UNL1        0.0501
      2 C         141.4297  139.1885  159.3286 C.ar    1  UNL1        0.0404
      3 C         140.0898  138.6820  158.8833 C.ar    1  UNL1        0.0074
      4 C         139.2349  138.4992  160.1022 C.ar    1  UNL1        0.0158
      5 C         140.0464  138.8926  161.3008 C.ar    1  UNL1        0.0647
      6 N         141.4028  139.3186  160.8227 N.ar    1  UNL1       -0.2957
      7 C         142.5339  139.7918  161.6869 C.ar    1  UNL1        0.1476
      8 C         143.2828  138.8144  162.5436 C.ar    1  UNL1        0.0397
      9 C         144.4139  139.2875  163.4079 C.ar    1  UNL1        0.0343
     10 C         144.7959  140.7380  163.4155 C.ar    1  UNL1        0.1593
     11 F         145.9270  141.2112  164.2797 F       1  UNL1       -0.2025
     12 C         144.0470  141.7154  162.5588 C.ar    1  UNL1        0.1300
     13 N         142.9160  141.2423  161.6946 N.ar    1  UNL1       -0.2241
     14 C         139.5828  138.8649  162.7271 C.ar    1  UNL1        0.0161
     15 C         138.9254  140.0730  163.3256 C.ar    1  UNL1        0.0011
     16 C         138.4619  140.0453  164.7519 C.ar    1  UNL1       -0.0042
     17 C         138.6556  138.8096  165.5796 C.ar    1  UNL1       -0.0225
     18 C         139.3130  137.6014  164.9811 C.ar    1  UNL1       -0.0042
     19 C         139.7766  137.6291  163.5548 C.ar    1  UNL1        0.0011
     20 C         138.1921  138.7819  167.0059 C.3     1  UNL1        0.0224
     21 C         137.0943  137.8473  167.4197 C.3     1  UNL1        0.0047
     22 C         138.8264  139.6888  168.0185 C.3     1  UNL1        0.0047
     23 C         139.6774  138.4067  157.4676 C.3     1  UNL1        0.1004
     24 N         138.7688  139.3619  156.7519 N.3     1  UNL1       -0.2646
     25 C         138.4445  139.1459  155.3034 C.3     1  UNL1        0.1049
     26 C         137.5360  140.1010  154.5878 C.3     1  UNL1        0.1595
     27 O         136.9517  141.2722  155.3206 O.3     1  UNL1       -0.3508
     28 C         137.2760  141.4882  156.7691 C.3     1  UNL1        0.1595
     29 C         138.1845  140.5330  157.4847 C.3     1  UNL1        0.1049
@<TRIPOS>BOND
     1     1     2    1
     2     2     3   ar
     3     3    23    1
     4    23    24    1
     5    24    25    1
     6    25    26    1
     7    26    27    1
     8    27    28    1
     9    28    29    1
    10     3     4   ar
    11     4     5   ar
    12     5    14    1
    13    14    15   ar
    14    15    16   ar
    15    16    17   ar
    16    17    20    1
    17    20    21    1
    18    20    22    1
    19    17    18   ar
    20    18    19   ar
    21     5     6   ar
    22     6     7    1
    23     7     8   ar
    24     8     9   ar
    25     9    10   ar
    26    10    11    1
    27    10    12   ar
    28    12    13   ar
    29     6     2   ar
    30    13     7   ar
    31    29    24    1
    32    19    14   ar
@<TRIPOS>MOLECULE
*****
 29 32 0 0 0
SMALL
GASTEIGER

@<TRIPOS>ATOM
      1 C         140.8109  139.8853  167.0101 C.3     1  UNL1        0.0501
      2 C         141.3467  140.9794  166.1350 C.ar    1  UNL1        0.0404
      3 C         142.3527  142.0170  166.5369 C.ar    1  UNL1        0.0074
      4 C         142.5984  142.9068  165.3546 C.ar    1  UNL1        0.0158
      5 C         141.7443  142.4192  164.2220 C.ar    1  UNL1        0.0647
      6 N         140.9707  141.2280  164.7044 N.ar    1  UNL1       -0.2957
      7 C         139.9929  140.4261  163.8976 C.ar    1  UNL1        0.1476
      8 C         138.6824  141.0314  163.4899 C.ar    1  UNL1        0.0397
      9 C         137.7045  140.2296  162.6832 C.ar    1  UNL1        0.0343
     10 C         138.0371  138.8224  162.2842 C.ar    1  UNL1        0.1593
     11 F         137.0592  138.0205  161.4775 F       1  UNL1       -0.2025
     12 C         139.3476  138.2170  162.6920 C.ar    1  UNL1        0.1300
     13 N         140.3254  139.0189  163.4987 N.ar    1  UNL1       -0.2241
     14 C         141.6758  143.0177  162.8483 C.ar    1  UNL1        0.0161
     15 C         142.5208  142.4572  161.7430 C.ar    1  UNL1        0.0011
     16 C         142.4523  143.0556  160.3693 C.ar    1  UNL1       -0.0042
     17 C         141.5388  144.2147  160.1009 C.ar    1  UNL1       -0.0225
     18 C         140.6938  144.7753  161.2062 C.ar    1  UNL1       -0.0042
     19 C         140.7623  144.1768  162.5799 C.ar    1  UNL1        0.0011
     20 C         141.4703  144.8132  158.7272 C.3     1  UNL1        0.0224
     21 C         140.3350  145.7225  158.3610 C.3     1  UNL1        0.0047
     22 C         142.5372  144.5023  157.7196 C.3     1  UNL1        0.0047
     23 C         142.9993  142.1426  167.8845 C.3     1  UNL1        0.1004
     24 N         142.1571  142.1203  169.1256 N.3     1  UNL1       -0.2646
     25 C         142.5211  141.2124  170.2627 C.3     1  UNL1        0.1049
     26 C         141.6789  141.1901  171.5037 C.3     1  UNL1        0.1595
     27 O         140.4727  142.0758  171.6076 O.3     1  UNL1       -0.3508
     28 C         140.1088  142.9837  170.4705 C.3     1  UNL1        0.1595
     29 C         140.9510  143.0060  169.2295 C.3     1  UNL1        0.1049
@<TRIPOS>BOND
     1     1     2    1
     2     2     3   ar
     3     3    23    1
     4    23    24    1
     5    24    25    1
     6    25    26    1
     7    26    27    1
     8    27    28    1
     9    28    29    1
    10     3     4   ar
    11     4     5   ar
    12     5    14    1
    13    14    15   ar
    14    15    16   ar
    15    16    17   ar
    16    17    20    1
    17    20    21    1
    18    20    22    1
    19    17    18   ar
    20    18    19   ar
    21     5     6   ar
    22     6     7    1
    23     7     8   ar
    24     8     9   ar
    25     9    10   ar
    26    10    11    1
    27    10    12   ar
    28    12    13   ar
    29     6     2   ar
    30    13     7   ar
    31    29    24    1
    32    19    14   ar
@<TRIPOS>MOLECULE
*****
 29 32 0 0 0
SMALL
GASTEIGER

@<TRIPOS>ATOM
      1 C         140.9128  144.8505  158.7160 C.3     1  UNL1        0.0501
      2 C         140.1388  143.7924  159.4449 C.ar    1  UNL1        0.0404
      3 C         139.0280  142.9618  158.8739 C.ar    1  UNL1        0.0074
      4 C         138.5424  142.0352  159.9489 C.ar    1  UNL1        0.0158
      5 C         139.3531  142.2931  161.1843 C.ar    1  UNL1        0.0647
      6 N         140.3398  143.3792  160.8728 N.ar    1  UNL1       -0.2957
      7 C         141.3501  143.9515  161.8224 C.ar    1  UNL1        0.1476
      8 C         140.9196  144.9279  162.8766 C.ar    1  UNL1        0.0397
      9 C         141.9298  145.5003  163.8263 C.ar    1  UNL1        0.0343
     10 C         143.3706  145.0961  163.7217 C.ar    1  UNL1        0.1593
     11 F         144.3809  145.6685  164.6714 F       1  UNL1       -0.2025
     12 C         143.8011  144.1197  162.6676 C.ar    1  UNL1        0.1300
     13 N         142.7908  143.5474  161.7179 N.ar    1  UNL1       -0.2241
     14 C         139.2035  141.5887  162.5001 C.ar    1  UNL1        0.0161
     15 C         140.1435  140.4793  162.8681 C.ar    1  UNL1        0.0011
     16 C         139.9939  139.7749  164.1839 C.ar    1  UNL1       -0.0042
     17 C         138.9043  140.1799  165.1318 C.ar    1  UNL1       -0.0225
     18 C         137.9642  141.2893  164.7639 C.ar    1  UNL1       -0.0042
     19 C         138.1138  141.9937  163.4480 C.ar    1  UNL1        0.0011
     20 C         138.7547  139.4755  166.4476 C.3     1  UNL1        0.0224
     21 C         137.8454  138.2882  166.5636 C.3     1  UNL1        0.0047
     22 C         139.5143  139.9584  167.6475 C.3     1  UNL1        0.0047
     23 C         138.4961  143.0435  157.4738 C.3     1  UNL1        0.1004
     24 N         138.0777  141.7943  156.7564 N.3     1  UNL1       -0.2646
     25 C         139.0872  140.7246  156.4620 C.3     1  UNL1        0.1049
     26 C         138.6689  139.4756  155.7446 C.3     1  UNL1        0.1595
     27 O         137.2410  139.2961  155.3215 O.3     1  UNL1       -0.3508
     28 C         136.2315  140.3658  155.6159 C.3     1  UNL1        0.1595
     29 C         136.6499  141.6149  156.3333 C.3     1  UNL1        0.1049
@<TRIPOS>BOND
     1     1     2    1
     2     2     3   ar
     3     3    23    1
     4    23    24    1
     5    24    25    1
     6    25    26    1
     7    26    27    1
     8    27    28    1
     9    28    29    1
    10     3     4   ar
    11     4     5   ar
    12     5    14    1
    13    14    15   ar
    14    15    16   ar
    15    16    17   ar
    16    17    20    1
    17    20    21    1
    18    20    22    1
    19    17    18   ar
    20    18    19   ar
    21     5     6   ar
    22     6     7    1
    23     7     8   ar
    24     8     9   ar
    25     9    10   ar
    26    10    11    1
    27    10    12   ar
    28    12    13   ar
    29     6     2   ar
    30    13     7   ar
    31    29    24    1
    32    19    14   ar
@<TRIPOS>MOLECULE
*****
 29 32 0 0 0
SMALL
GASTEIGER

@<TRIPOS>ATOM
      1 C         141.9470  143.9209  158.6441 C.3     1  UNL1        0.0501
      2 C         141.1235  142.9135  159.3905 C.ar    1  UNL1        0.0404
      3 C         140.1808  141.9191  158.7802 C.ar    1  UNL1        0.0074
      4 C         139.5728  141.1147  159.8907 C.ar    1  UNL1        0.0158
      5 C         140.1397  141.6119  161.1874 C.ar    1  UNL1        0.0647
      6 N         141.0981  142.7237  160.8782 N.ar    1  UNL1       -0.2957
      7 C         141.8918  143.5079  161.8807 C.ar    1  UNL1        0.1476
      8 C         141.1992  144.4741  162.7955 C.ar    1  UNL1        0.0397
      9 C         141.9927  145.2583  163.7980 C.ar    1  UNL1        0.0343
     10 C         143.4791  145.0764  163.8858 C.ar    1  UNL1        0.1593
     11 F         144.2728  145.8606  164.8884 F       1  UNL1       -0.2025
     12 C         144.1718  144.1102  162.9711 C.ar    1  UNL1        0.1300
     13 N         143.3781  143.3260  161.9686 N.ar    1  UNL1       -0.2241
     14 C         139.8067  141.0892  162.5533 C.ar    1  UNL1        0.0161
     15 C         140.8161  140.2813  163.3138 C.ar    1  UNL1        0.0011
     16 C         140.4831  139.7586  164.6798 C.ar    1  UNL1       -0.0042
     17 C         139.1408  140.0439  165.2853 C.ar    1  UNL1       -0.0225
     18 C         138.1314  140.8518  164.5248 C.ar    1  UNL1       -0.0042
     19 C         138.4643  141.3745  163.1589 C.ar    1  UNL1        0.0011
     20 C         138.8078  139.5212  166.6512 C.3     1  UNL1        0.0224
     21 C         139.5709  140.0082  167.8472 C.3     1  UNL1        0.0047
     22 C         137.7117  138.5113  166.8212 C.3     1  UNL1        0.0047
     23 C         139.8961  141.7575  157.3163 C.3     1  UNL1        0.1004
     24 N         138.9116  142.6643  156.6391 N.3     1  UNL1       -0.2646
     25 C         137.4940  142.2167  156.4395 C.3     1  UNL1        0.1049
     26 C         136.5095  143.1235  155.7624 C.3     1  UNL1        0.1595
     27 O         136.9428  144.4779  155.2848 O.3     1  UNL1       -0.3508
     28 C         138.3604  144.9254  155.4844 C.3     1  UNL1        0.1595
     29 C         139.3449  144.0186  156.1616 C.3     1  UNL1        0.1049
@<TRIPOS>BOND
     1     1     2    1
     2     2     3   ar
     3     3    23    1
     4    23    24    1
     5    24    25    1
     6    25    26    1
     7    26    27    1
     8    27    28    1
     9    28    29    1
    10     3     4   ar
    11     4     5   ar
    12     5    14    1
    13    14    15   ar
    14    15    16   ar
    15    16    17   ar
    16    17    20    1
    17    20    21    1
    18    20    22    1
    19    17    18   ar
    20    18    19   ar
    21     5     6   ar
    22     6     7    1
    23     7     8   ar
    24     8     9   ar
    25     9    10   ar
    26    10    11    1
    27    10    12   ar
    28    12    13   ar
    29     6     2   ar
    30    13     7   ar
    31    29    24    1
    32    19    14   ar
