@<TRIPOS>MOLECULE
*****
 39 43 0 0 0
SMALL
GASTEIGER

@<TRIPOS>ATOM
      1 C         141.2296  139.4291  164.1156 C.ar    1  UNL1        0.0502
      2 C         140.5248  138.2008  163.6211 C.ar    1  UNL1        0.0143
      3 C         140.5516  137.8574  162.1612 C.ar    1  UNL1       -0.0030
      4 C         141.2830  138.7423  161.1958 C.ar    1  UNL1       -0.0223
      5 C         141.9878  139.9706  161.6904 C.ar    1  UNL1       -0.0034
      6 C         141.9610  140.3140  163.1502 C.ar    1  UNL1        0.0089
      7 C         141.3097  138.3989  159.7359 C.3     1  UNL1        0.0257
      8 C         142.5537  137.8279  159.1224 C.3     1  UNL1        0.0259
      9 C         142.5804  137.4844  157.6624 C.3     1  UNL1        0.0938
     10 N         141.3631  137.7120  156.8160 N.am    1  UNL1       -0.2784
     11 C         141.3897  137.3685  155.3562 C.2     1  UNL1        0.2420
     12 O         140.1724  137.5961  154.5098 O.2     1  UNL1       -0.2734
     13 C         140.1190  138.2830  157.4296 C.3     1  UNL1        0.0938
     14 C         140.0924  138.6264  158.8895 C.3     1  UNL1        0.0259
     15 C         142.6337  136.7976  154.7426 C.3     1  UNL1        0.1588
     16 N         142.8439  135.3125  154.7170 N.3     1  UNL1       -0.2607
     17 C         142.1877  134.4804  153.6554 C.3     1  UNL1        0.1050
     18 C         142.3979  132.9955  153.6299 C.3     1  UNL1        0.1595
     19 O         143.2642  132.3426  154.6659 O.3     1  UNL1       -0.3508
     20 C         143.9203  133.1748  155.7275 C.3     1  UNL1        0.1595
     21 C         143.7102  134.6597  155.7530 C.3     1  UNL1        0.1050
     22 C         142.6658  141.5424  163.6448 C.2     1  UNL1       -0.0253
     23 C         144.1171  141.4753  164.0179 C.2     1  UNL1       -0.0303
     24 C         144.8218  142.7036  164.5125 C.3     1  UNL1        0.0257
     25 C         144.0753  143.9990  164.6340 C.3     1  UNL1        0.0050
     26 C         142.6240  144.0660  164.2609 C.3     1  UNL1        0.0050
     27 C         141.9192  142.8377  163.7663 C.3     1  UNL1        0.0261
     28 C         142.2384  139.2027  166.4991 C.2     1  UNL1        0.2837
     29 O         143.3006  138.2894  165.9627 O.2     1  UNL1       -0.2665
     30 N         141.2029  139.7726  165.5756 N.am    1  UNL1       -0.2779
     31 H         140.5057  140.3720  165.9276 H       1  UNL1        0.1553
     32 C         141.6398  140.5881  170.0751 C.ar    1  UNL1        0.1469
     33 C         142.7016  139.5611  170.3361 C.ar    1  UNL1        0.1282
     34 N         143.0550  138.9171  169.0283 N.ar    1  UNL1       -0.2205
     35 C         142.2117  139.5461  167.9590 C.ar    1  UNL1        0.1958
     36 N         141.3372  140.5789  168.6060 N.ar    1  UNL1       -0.3257
     37 H         140.6799  141.1503  168.1470 H       1  UNL1        0.1682
     38 N         140.3486  142.3512  172.1305 N.1     1  UNL1       -0.1893
     39 C         140.9942  141.4696  171.1028 C.1     1  UNL1        0.1194
@<TRIPOS>BOND
     1    38    39    3
     2    39    32    1
     3    32    33   ar
     4    33    34   ar
     5    34    35   ar
     6    35    28    1
     7    28    29    2
     8    28    30   am
     9    30     1    1
    10     1     2   ar
    11     2     3   ar
    12     3     4   ar
    13     4     7    1
    14     7     8    1
    15     8     9    1
    16     9    10    1
    17    10    11   am
    18    11    12    2
    19    11    15    1
    20    15    16    1
    21    16    17    1
    22    17    18    1
    23    18    19    1
    24    19    20    1
    25    20    21    1
    26    10    13    1
    27    13    14    1
    28     4     5   ar
    29     5     6   ar
    30     6    22    1
    31    22    23    2
    32    23    24    1
    33    24    25    1
    34    25    26    1
    35    26    27    1
    36    35    36   ar
    37    36    32   ar
    38     6     1   ar
    39    27    22    1
    40    14     7    1
    41    21    16    1
    42    30    31    1
    43    36    37    1
@<TRIPOS>MOLECULE
*****
 39 43 0 0 0
SMALL
GASTEIGER

@<TRIPOS>ATOM
      1 C         141.0598  139.5951  164.0382 C.ar    1  UNL1        0.0502
      2 C         141.6955  138.2979  163.6345 C.ar    1  UNL1        0.0143
      3 C         141.7447  137.9052  162.1876 C.ar    1  UNL1       -0.0030
      4 C         141.1583  138.8097  161.1446 C.ar    1  UNL1       -0.0223
      5 C         140.5226  140.1069  161.5484 C.ar    1  UNL1       -0.0034
      6 C         140.4733  140.4996  162.9952 C.ar    1  UNL1        0.0089
      7 C         141.2075  138.4169  159.6977 C.3     1  UNL1        0.0257
      8 C         142.4746  137.8674  159.1125 C.3     1  UNL1        0.0259
      9 C         142.5238  137.4746  157.6656 C.3     1  UNL1        0.0938
     10 N         141.3060  137.6314  156.8040 N.am    1  UNL1       -0.2784
     11 C         141.3552  137.2387  155.3572 C.2     1  UNL1        0.2420
     12 O         140.1374  137.3955  154.4957 O.2     1  UNL1       -0.2734
     13 C         140.0389  138.1810  157.3894 C.3     1  UNL1        0.0938
     14 C         139.9897  138.5737  158.8362 C.3     1  UNL1        0.0259
     15 C         142.6222  136.6891  154.7720 C.3     1  UNL1        0.1588
     16 N         142.8672  135.2092  154.7696 N.3     1  UNL1       -0.2607
     17 C         143.7353  134.5910  155.8250 C.3     1  UNL1        0.1050
     18 C         143.9802  133.1111  155.8225 C.3     1  UNL1        0.1595
     19 O         143.3569  132.2495  154.7646 O.3     1  UNL1       -0.3508
     20 C         142.4887  132.8678  153.7092 C.3     1  UNL1        0.1595
     21 C         142.2439  134.3476  153.7117 C.3     1  UNL1        0.1050
     22 C         139.8376  141.7969  163.3990 C.2     1  UNL1       -0.0253
     23 C         140.6653  143.0455  163.4768 C.2     1  UNL1       -0.0303
     24 C         140.0297  144.3427  163.8806 C.3     1  UNL1        0.0257
     25 C         138.5663  144.3914  164.2067 C.3     1  UNL1        0.0050
     26 C         137.7387  143.1428  164.1289 C.3     1  UNL1        0.0050
     27 C         138.3744  141.8456  163.7251 C.3     1  UNL1        0.0261
     28 C         139.8493  139.5685  166.3369 C.2     1  UNL1        0.2837
     29 O         138.7373  138.7563  165.7419 O.2     1  UNL1       -0.2665
     30 N         141.0105  139.9878  165.4851 N.am    1  UNL1       -0.2779
     31 H         141.7404  140.5209  165.8756 H       1  UNL1        0.1553
     32 C         140.3799  140.9218  169.9358 C.ar    1  UNL1        0.1469
     33 C         139.0683  140.2093  170.0846 C.ar    1  UNL1        0.1282
     34 N         138.7099  139.6157  168.7545 N.ar    1  UNL1       -0.2205
     35 C         139.8000  139.9612  167.7837 C.ar    1  UNL1        0.1958
     36 N         140.8321  140.7684  168.5139 N.ar    1  UNL1       -0.3257
     37 H         141.6608  141.1335  168.1276 H       1  UNL1        0.1682
     38 N         141.8421  142.3948  172.1020 N.1     1  UNL1       -0.1893
     39 C         141.1110  141.6583  171.0189 C.1     1  UNL1        0.1194
@<TRIPOS>BOND
     1    38    39    3
     2    39    32    1
     3    32    33   ar
     4    33    34   ar
     5    34    35   ar
     6    35    28    1
     7    28    29    2
     8    28    30   am
     9    30     1    1
    10     1     2   ar
    11     2     3   ar
    12     3     4   ar
    13     4     7    1
    14     7     8    1
    15     8     9    1
    16     9    10    1
    17    10    11   am
    18    11    12    2
    19    11    15    1
    20    15    16    1
    21    16    17    1
    22    17    18    1
    23    18    19    1
    24    19    20    1
    25    20    21    1
    26    10    13    1
    27    13    14    1
    28     4     5   ar
    29     5     6   ar
    30     6    22    1
    31    22    23    2
    32    23    24    1
    33    24    25    1
    34    25    26    1
    35    26    27    1
    36    35    36   ar
    37    36    32   ar
    38     6     1   ar
    39    27    22    1
    40    14     7    1
    41    21    16    1
    42    30    31    1
    43    36    37    1
@<TRIPOS>MOLECULE
*****
 39 43 0 0 0
SMALL
GASTEIGER

@<TRIPOS>ATOM
      1 C         141.1297  143.7809  163.3335 C.ar    1  UNL1        0.0502
      2 C         140.0555  144.7338  162.9001 C.ar    1  UNL1        0.0143
      3 C         140.0047  145.2106  161.4788 C.ar    1  UNL1       -0.0030
      4 C         141.0282  144.7346  160.4910 C.ar    1  UNL1       -0.0223
      5 C         142.1024  143.7816  160.9244 C.ar    1  UNL1       -0.0034
      6 C         142.1532  143.3048  162.3456 C.ar    1  UNL1        0.0089
      7 C         140.9773  145.2115  159.0696 C.3     1  UNL1        0.0257
      8 C         139.8498  146.0889  158.6128 C.3     1  UNL1        0.0259
      9 C         139.7990  146.5658  157.1915 C.3     1  UNL1        0.0938
     10 N         140.8757  146.1652  156.2271 N.am    1  UNL1       -0.2784
     11 C         140.8250  146.6421  154.8058 C.2     1  UNL1        0.2420
     12 O         141.9017  146.2414  153.8414 O.2     1  UNL1       -0.2734
     13 C         142.0033  145.2877  156.6840 C.3     1  UNL1        0.0938
     14 C         142.0541  144.8108  158.1052 C.3     1  UNL1        0.0259
     15 C         139.6975  147.5195  154.3490 C.3     1  UNL1        0.1588
     16 N         139.7328  148.9928  154.6290 N.3     1  UNL1       -0.2607
     17 C         138.7344  149.6019  155.5683 C.3     1  UNL1        0.1050
     18 C         138.7697  151.0750  155.8482 C.3     1  UNL1        0.1595
     19 O         139.8035  151.9392  155.1890 O.3     1  UNL1       -0.3508
     20 C         140.8019  151.3301  154.2497 C.3     1  UNL1        0.1595
     21 C         140.7665  149.8569  153.9698 C.3     1  UNL1        0.1050
     22 C         143.2275  142.3518  162.7791 C.2     1  UNL1       -0.0253
     23 C         144.5160  142.8782  163.3383 C.2     1  UNL1       -0.0303
     24 C         145.5902  141.9253  163.7718 C.3     1  UNL1        0.0257
     25 C         145.3761  140.4460  163.6460 C.3     1  UNL1        0.0050
     26 C         144.0876  139.9196  163.0867 C.3     1  UNL1        0.0050
     27 C         143.0133  140.8726  162.6532 C.3     1  UNL1        0.0261
     28 C         140.4768  142.0387  165.1469 C.2     1  UNL1        0.2837
     29 O         139.7222  141.2503  164.1177 O.2     1  UNL1       -0.2665
     30 N         141.1805  143.3040  164.7548 N.am    1  UNL1       -0.2779
     31 H         141.6758  143.8214  165.4302 H       1  UNL1        0.1553
     32 C         140.5279  141.5342  168.9950 C.ar    1  UNL1        0.1469
     33 C         140.6836  140.1214  168.5154 C.ar    1  UNL1        0.1282
     34 N         140.6834  140.1385  167.0155 N.ar    1  UNL1       -0.2205
     35 C         140.5276  141.5617  166.5681 C.ar    1  UNL1        0.1958
     36 N         140.4315  142.4243  167.7915 N.ar    1  UNL1       -0.3257
     37 H         140.3240  143.4029  167.8026 H       1  UNL1        0.1682
     38 N         140.4270  142.4233  171.8585 N.1     1  UNL1       -0.1893
     39 C         140.4775  141.9788  170.4267 C.1     1  UNL1        0.1194
@<TRIPOS>BOND
     1    38    39    3
     2    39    32    1
     3    32    33   ar
     4    33    34   ar
     5    34    35   ar
     6    35    28    1
     7    28    29    2
     8    28    30   am
     9    30     1    1
    10     1     2   ar
    11     2     3   ar
    12     3     4   ar
    13     4     7    1
    14     7     8    1
    15     8     9    1
    16     9    10    1
    17    10    11   am
    18    11    12    2
    19    11    15    1
    20    15    16    1
    21    16    17    1
    22    17    18    1
    23    18    19    1
    24    19    20    1
    25    20    21    1
    26    10    13    1
    27    13    14    1
    28     4     5   ar
    29     5     6   ar
    30     6    22    1
    31    22    23    2
    32    23    24    1
    33    24    25    1
    34    25    26    1
    35    26    27    1
    36    35    36   ar
    37    36    32   ar
    38     6     1   ar
    39    27    22    1
    40    14     7    1
    41    21    16    1
    42    30    31    1
    43    36    37    1
@<TRIPOS>MOLECULE
*****
 39 43 0 0 0
SMALL
GASTEIGER

@<TRIPOS>ATOM
      1 C         142.9153  141.1707  163.8543 C.ar    1  UNL1        0.0502
      2 C         144.0351  142.0499  163.3821 C.ar    1  UNL1        0.0143
      3 C         144.4068  142.0757  161.9291 C.ar    1  UNL1       -0.0030
      4 C         143.6587  141.2223  160.9483 C.ar    1  UNL1       -0.0223
      5 C         142.5389  140.3431  161.4205 C.ar    1  UNL1       -0.0034
      6 C         142.1672  140.3173  162.8734 C.ar    1  UNL1        0.0089
      7 C         144.0304  141.2481  159.4953 C.3     1  UNL1        0.0257
      8 C         144.9598  142.3055  158.9776 C.3     1  UNL1        0.0259
      9 C         145.3316  142.3313  157.5246 C.3     1  UNL1        0.0938
     10 N         144.7738  141.2997  156.5893 N.am    1  UNL1       -0.2784
     11 C         145.1455  141.3255  155.1363 C.2     1  UNL1        0.2420
     12 O         144.5878  140.2939  154.2011 O.2     1  UNL1       -0.2734
     13 C         143.8444  140.2423  157.1071 C.3     1  UNL1        0.0938
     14 C         143.4727  140.2165  158.5600 C.3     1  UNL1        0.0259
     15 C         146.0749  142.3829  154.6187 C.3     1  UNL1        0.1588
     16 N         147.5108  142.0489  154.3411 N.3     1  UNL1       -0.2607
     17 C         147.9746  141.8479  152.9289 C.3     1  UNL1        0.1050
     18 C         149.4104  141.5140  152.6515 C.3     1  UNL1        0.1595
     19 O         150.3823  141.3811  153.7863 O.3     1  UNL1       -0.3508
     20 C         149.9185  141.5821  155.1985 C.3     1  UNL1        0.1595
     21 C         148.4827  141.9160  155.4759 C.3     1  UNL1        0.1050
     22 C         141.0473  139.4381  163.3457 C.2     1  UNL1       -0.0253
     23 C         139.6529  139.9835  163.4368 C.2     1  UNL1       -0.0303
     24 C         138.5331  139.1044  163.9090 C.3     1  UNL1        0.0257
     25 C         138.8076  137.6798  164.2901 C.3     1  UNL1        0.0050
     26 C         140.2019  137.1343  164.1990 C.3     1  UNL1        0.0050
     27 C         141.3218  138.0136  163.7267 C.3     1  UNL1        0.0261
     28 C         143.0691  140.0573  166.1966 C.2     1  UNL1        0.2837
     29 O         143.9664  138.9956  165.6330 O.2     1  UNL1       -0.2665
     30 N         142.5436  141.1449  165.3073 N.am    1  UNL1       -0.2779
     31 H         141.9547  141.8418  165.6772 H       1  UNL1        0.1553
     32 C         141.8025  140.6649  169.8149 C.ar    1  UNL1        0.1469
     33 C         142.4484  139.3184  169.9562 C.ar    1  UNL1        0.1282
     34 N         143.0015  138.9270  168.6180 N.ar    1  UNL1       -0.2205
     35 C         142.6974  140.0315  167.6496 C.ar    1  UNL1        0.1958
     36 N         141.9564  141.1055  168.3893 N.ar    1  UNL1       -0.3257
     37 H         141.6287  141.9512  168.0065 H       1  UNL1        0.1682
     38 N         140.4418  142.2059  171.9998 N.1     1  UNL1       -0.1893
     39 C         141.1222  141.4354  170.9073 C.1     1  UNL1        0.1194
@<TRIPOS>BOND
     1    38    39    3
     2    39    32    1
     3    32    33   ar
     4    33    34   ar
     5    34    35   ar
     6    35    28    1
     7    28    29    2
     8    28    30   am
     9    30     1    1
    10     1     2   ar
    11     2     3   ar
    12     3     4   ar
    13     4     7    1
    14     7     8    1
    15     8     9    1
    16     9    10    1
    17    10    11   am
    18    11    12    2
    19    11    15    1
    20    15    16    1
    21    16    17    1
    22    17    18    1
    23    18    19    1
    24    19    20    1
    25    20    21    1
    26    10    13    1
    27    13    14    1
    28     4     5   ar
    29     5     6   ar
    30     6    22    1
    31    22    23    2
    32    23    24    1
    33    24    25    1
    34    25    26    1
    35    26    27    1
    36    35    36   ar
    37    36    32   ar
    38     6     1   ar
    39    27    22    1
    40    14     7    1
    41    21    16    1
    42    30    31    1
    43    36    37    1
@<TRIPOS>MOLECULE
*****
 39 43 0 0 0
SMALL
GASTEIGER

@<TRIPOS>ATOM
      1 C         140.7693  138.8072  161.1246 C.ar    1  UNL1        0.0502
      2 C         140.0296  137.7419  161.8782 C.ar    1  UNL1        0.0143
      3 C         139.7347  137.9232  163.3377 C.ar    1  UNL1       -0.0030
      4 C         140.1794  139.1698  164.0436 C.ar    1  UNL1       -0.0223
      5 C         140.9191  140.2351  163.2900 C.ar    1  UNL1       -0.0034
      6 C         141.2140  140.0538  161.8305 C.ar    1  UNL1        0.0089
      7 C         139.8845  139.3510  165.5031 C.3     1  UNL1        0.0257
      8 C         140.9804  139.7516  166.4456 C.3     1  UNL1        0.0259
      9 C         140.6854  139.9328  167.9052 C.3     1  UNL1        0.0938
     10 N         139.2945  139.7134  168.4221 N.am    1  UNL1       -0.2784
     11 C         138.9995  139.8946  169.8816 C.2     1  UNL1        0.2420
     12 O         137.6086  139.6752  170.3985 O.2     1  UNL1       -0.2734
     13 C         138.1986  139.3128  167.4795 C.3     1  UNL1        0.0938
     14 C         138.4936  139.1316  166.0200 C.3     1  UNL1        0.0259
     15 C         140.0954  140.2952  170.8241 C.3     1  UNL1        0.1588
     16 N         140.7525  141.6364  170.6837 N.3     1  UNL1       -0.2607
     17 C         142.2375  141.7652  170.8509 C.3     1  UNL1        0.1050
     18 C         142.8945  143.1063  170.7105 C.3     1  UNL1        0.1595
     19 O         142.0664  144.3186  170.4029 O.3     1  UNL1       -0.3508
     20 C         140.5814  144.1898  170.2357 C.3     1  UNL1        0.1595
     21 C         139.9244  142.8487  170.3761 C.3     1  UNL1        0.1050
     22 C         141.9537  141.1192  161.0768 C.2     1  UNL1       -0.0253
     23 C         143.4514  141.0826  161.0023 C.2     1  UNL1       -0.0303
     24 C         144.1911  142.1478  160.2486 C.3     1  UNL1        0.0257
     25 C         143.4331  143.2498  159.5695 C.3     1  UNL1        0.0050
     26 C         141.9354  143.2864  159.6440 C.3     1  UNL1        0.0050
     27 C         141.1957  142.2210  160.3977 C.3     1  UNL1        0.0261
     28 C         142.3123  137.9136  159.2349 C.2     1  UNL1        0.2837
     29 O         143.2653  137.3825  160.2644 O.2     1  UNL1       -0.2665
     30 N         141.0642  138.6260  159.6650 N.am    1  UNL1       -0.2779
     31 H         140.4387  138.9746  158.9894 H       1  UNL1        0.1553
     32 C         142.6121  136.8530  155.5133 C.ar    1  UNL1        0.1469
     33 C         143.5103  138.0540  155.5457 C.ar    1  UNL1        0.1282
     34 N         143.5073  138.5975  156.9438 N.ar    1  UNL1       -0.2205
     35 C         142.6072  137.7324  157.7755 C.ar    1  UNL1        0.1958
     36 N         142.0540  136.6543  156.8914 N.ar    1  UNL1       -0.3257
     37 H         141.4335  135.9414  157.1672 H       1  UNL1        0.1682
     38 N         142.0335  135.1479  153.1137 N.1     1  UNL1       -0.1893
     39 C         142.3228  136.0005  154.3135 C.1     1  UNL1        0.1194
@<TRIPOS>BOND
     1    38    39    3
     2    39    32    1
     3    32    33   ar
     4    33    34   ar
     5    34    35   ar
     6    35    28    1
     7    28    29    2
     8    28    30   am
     9    30     1    1
    10     1     2   ar
    11     2     3   ar
    12     3     4   ar
    13     4     7    1
    14     7     8    1
    15     8     9    1
    16     9    10    1
    17    10    11   am
    18    11    12    2
    19    11    15    1
    20    15    16    1
    21    16    17    1
    22    17    18    1
    23    18    19    1
    24    19    20    1
    25    20    21    1
    26    10    13    1
    27    13    14    1
    28     4     5   ar
    29     5     6   ar
    30     6    22    1
    31    22    23    2
    32    23    24    1
    33    24    25    1
    34    25    26    1
    35    26    27    1
    36    35    36   ar
    37    36    32   ar
    38     6     1   ar
    39    27    22    1
    40    14     7    1
    41    21    16    1
    42    30    31    1
    43    36    37    1
@<TRIPOS>MOLECULE
*****
 39 43 0 0 0
SMALL
GASTEIGER

@<TRIPOS>ATOM
      1 C         141.9148  140.5923  163.0167 C.ar    1  UNL1        0.0502
      2 C         143.0514  139.6971  162.6208 C.ar    1  UNL1        0.0143
      3 C         143.7148  139.8727  161.2870 C.ar    1  UNL1       -0.0030
      4 C         143.2417  140.9435  160.3492 C.ar    1  UNL1       -0.0223
      5 C         142.1052  141.8387  160.7451 C.ar    1  UNL1       -0.0034
      6 C         141.4417  141.6631  162.0789 C.ar    1  UNL1        0.0089
      7 C         143.9052  141.1190  159.0154 C.3     1  UNL1        0.0257
      8 C         144.7344  142.3394  158.7450 C.3     1  UNL1        0.0259
      9 C         145.3979  142.5149  157.4112 C.3     1  UNL1        0.0938
     10 N         145.2322  141.4701  156.3478 N.am    1  UNL1       -0.2784
     11 C         145.8956  141.6456  155.0140 C.2     1  UNL1        0.2420
     12 O         145.7298  140.6008  153.9506 O.2     1  UNL1       -0.2734
     13 C         144.4029  140.2497  156.6182 C.3     1  UNL1        0.0938
     14 C         143.7394  140.0742  157.9520 C.3     1  UNL1        0.0259
     15 C         146.7248  142.8659  154.7437 C.3     1  UNL1        0.1588
     16 N         148.1865  142.7266  154.4365 N.3     1  UNL1       -0.2607
     17 C         148.8004  143.5319  153.3299 C.3     1  UNL1        0.1050
     18 C         150.2620  143.3925  153.0228 C.3     1  UNL1        0.1595
     19 O         151.1096  142.4479  153.8223 O.3     1  UNL1       -0.3508
     20 C         150.4957  141.6426  154.9288 C.3     1  UNL1        0.1595
     21 C         149.0341  141.7819  155.2359 C.3     1  UNL1        0.1050
     22 C         140.3051  142.5584  162.4749 C.2     1  UNL1       -0.0253
     23 C         138.8918  142.1505  162.1813 C.2     1  UNL1       -0.0303
     24 C         137.7552  143.0457  162.5773 C.3     1  UNL1        0.0257
     25 C         138.0320  144.3488  163.2668 C.3     1  UNL1        0.0050
     26 C         139.4453  144.7567  163.5604 C.3     1  UNL1        0.0050
     27 C         140.5819  143.8614  163.1644 C.3     1  UNL1        0.0261
     28 C         141.7428  141.1874  165.5399 C.2     1  UNL1        0.2837
     29 O         142.8978  142.1336  165.3954 O.2     1  UNL1       -0.2665
     30 N         141.2513  140.4167  164.3506 N.am    1  UNL1       -0.2779
     31 H         140.4933  139.7957  164.4453 H       1  UNL1        0.1553
     32 C         140.5211  141.2518  169.2234 C.ar    1  UNL1        0.1469
     33 C         139.5957  140.2318  168.6289 C.ar    1  UNL1        0.1282
     34 N         139.9407  140.0836  167.1767 N.ar    1  UNL1       -0.2205
     35 C         141.0794  141.0119  166.8737 C.ar    1  UNL1        0.1958
     36 N         141.4380  141.7338  168.1386 N.ar    1  UNL1       -0.3257
     37 H         142.1502  142.4061  168.2392 H       1  UNL1        0.1682
     38 N         140.5355  142.1668  172.0805 N.1     1  UNL1       -0.1893
     39 C         140.5283  141.7093  170.6520 C.1     1  UNL1        0.1194
@<TRIPOS>BOND
     1    38    39    3
     2    39    32    1
     3    32    33   ar
     4    33    34   ar
     5    34    35   ar
     6    35    28    1
     7    28    29    2
     8    28    30   am
     9    30     1    1
    10     1     2   ar
    11     2     3   ar
    12     3     4   ar
    13     4     7    1
    14     7     8    1
    15     8     9    1
    16     9    10    1
    17    10    11   am
    18    11    12    2
    19    11    15    1
    20    15    16    1
    21    16    17    1
    22    17    18    1
    23    18    19    1
    24    19    20    1
    25    20    21    1
    26    10    13    1
    27    13    14    1
    28     4     5   ar
    29     5     6   ar
    30     6    22    1
    31    22    23    2
    32    23    24    1
    33    24    25    1
    34    25    26    1
    35    26    27    1
    36    35    36   ar
    37    36    32   ar
    38     6     1   ar
    39    27    22    1
    40    14     7    1
    41    21    16    1
    42    30    31    1
    43    36    37    1
@<TRIPOS>MOLECULE
*****
 39 43 0 0 0
SMALL
GASTEIGER

@<TRIPOS>ATOM
      1 C         142.4632  140.7189  163.4952 C.ar    1  UNL1        0.0502
      2 C         143.6019  140.0067  162.8273 C.ar    1  UNL1        0.0143
      3 C         143.9335  140.3012  161.3944 C.ar    1  UNL1       -0.0030
      4 C         143.1264  141.3079  160.6294 C.ar    1  UNL1       -0.0223
      5 C         141.9878  142.0201  161.2973 C.ar    1  UNL1       -0.0034
      6 C         141.6562  141.7256  162.7302 C.ar    1  UNL1        0.0089
      7 C         143.4581  141.6023  159.1964 C.3     1  UNL1        0.0257
      8 C         144.2225  140.6008  158.3824 C.3     1  UNL1        0.0259
      9 C         144.5541  140.8953  156.9495 C.3     1  UNL1        0.0938
     10 N         144.1214  142.1913  156.3305 N.am    1  UNL1       -0.2784
     11 C         144.4530  142.4858  154.8976 C.2     1  UNL1        0.2420
     12 O         144.0202  143.7818  154.2787 O.2     1  UNL1       -0.2734
     13 C         143.3569  143.1929  157.1446 C.3     1  UNL1        0.0938
     14 C         143.0253  142.8984  158.5775 C.3     1  UNL1        0.0259
     15 C         145.2174  141.4843  154.0837 C.3     1  UNL1        0.1588
     16 N         146.7108  141.5825  153.9832 N.3     1  UNL1       -0.2607
     17 C         147.5423  141.6673  155.2287 C.3     1  UNL1        0.1050
     18 C         149.0357  141.7655  155.1282 C.3     1  UNL1        0.1595
     19 O         149.6976  141.7788  153.7822 O.3     1  UNL1       -0.3508
     20 C         148.8661  141.6940  152.5367 C.3     1  UNL1        0.1595
     21 C         147.3727  141.5958  152.6372 C.3     1  UNL1        0.1050
     22 C         140.5174  142.4378  163.3982 C.2     1  UNL1       -0.0253
     23 C         140.7517  143.7541  164.0782 C.2     1  UNL1       -0.0303
     24 C         139.6131  144.4663  164.7462 C.3     1  UNL1        0.0257
     25 C         138.2401  143.8622  164.7342 C.3     1  UNL1        0.0050
     26 C         138.0058  142.5459  164.0542 C.3     1  UNL1        0.0050
     27 C         139.1446  141.8337  163.3862 C.3     1  UNL1        0.0261
     28 C         142.8549  141.1430  166.0284 C.2     1  UNL1        0.2837
     29 O         143.9099  142.1561  165.6956 O.2     1  UNL1       -0.2665
     30 N         142.1316  140.4244  164.9282 N.am    1  UNL1       -0.2779
     31 H         141.4392  139.7595  165.1466 H       1  UNL1        0.1553
     32 C         141.7055  141.0762  169.7350 C.ar    1  UNL1        0.1469
     33 C         142.3206  139.7149  169.5977 C.ar    1  UNL1        0.1282
     34 N         142.8260  139.5743  168.1925 N.ar    1  UNL1       -0.2205
     35 C         142.5233  140.8486  167.4613 C.ar    1  UNL1        0.1958
     36 N         141.8308  141.7768  168.4146 N.ar    1  UNL1       -0.3257
     37 H         141.5141  142.6861  168.2097 H       1  UNL1        0.1682
     38 N         140.4458  142.2000  172.2150 N.1     1  UNL1       -0.1893
     39 C         141.0756  141.6381  170.9750 C.1     1  UNL1        0.1194
@<TRIPOS>BOND
     1    38    39    3
     2    39    32    1
     3    32    33   ar
     4    33    34   ar
     5    34    35   ar
     6    35    28    1
     7    28    29    2
     8    28    30   am
     9    30     1    1
    10     1     2   ar
    11     2     3   ar
    12     3     4   ar
    13     4     7    1
    14     7     8    1
    15     8     9    1
    16     9    10    1
    17    10    11   am
    18    11    12    2
    19    11    15    1
    20    15    16    1
    21    16    17    1
    22    17    18    1
    23    18    19    1
    24    19    20    1
    25    20    21    1
    26    10    13    1
    27    13    14    1
    28     4     5   ar
    29     5     6   ar
    30     6    22    1
    31    22    23    2
    32    23    24    1
    33    24    25    1
    34    25    26    1
    35    26    27    1
    36    35    36   ar
    37    36    32   ar
    38     6     1   ar
    39    27    22    1
    40    14     7    1
    41    21    16    1
    42    30    31    1
    43    36    37    1
@<TRIPOS>MOLECULE
*****
 39 43 0 0 0
SMALL
GASTEIGER

@<TRIPOS>ATOM
      1 C         141.8626  144.2712  160.2189 C.ar    1  UNL1        0.0502
      2 C         141.2991  144.8380  161.4882 C.ar    1  UNL1        0.0143
      3 C         141.4881  144.1075  162.7845 C.ar    1  UNL1       -0.0030
      4 C         142.2406  142.8102  162.8116 C.ar    1  UNL1       -0.0223
      5 C         142.8041  142.2434  161.5424 C.ar    1  UNL1       -0.0034
      6 C         142.6151  142.9739  160.2460 C.ar    1  UNL1        0.0089
      7 C         142.4295  142.0797  164.1081 C.3     1  UNL1        0.0257
      8 C         142.2391  142.8004  165.4097 C.3     1  UNL1        0.0259
      9 C         142.4281  142.0699  166.7062 C.3     1  UNL1        0.0938
     10 N         142.8074  140.6187  166.7010 N.am    1  UNL1       -0.2784
     11 C         142.9964  139.8882  167.9973 C.2     1  UNL1        0.2420
     12 O         143.3757  138.4370  167.9921 O.2     1  UNL1       -0.2734
     13 C         142.9978  139.8980  165.3992 C.3     1  UNL1        0.0938
     14 C         142.8089  140.6285  164.1029 C.3     1  UNL1        0.0259
     15 C         142.8060  140.6089  169.2989 C.3     1  UNL1        0.1588
     16 N         141.4314  141.0255  169.7315 N.3     1  UNL1       -0.2607
     17 C         141.1947  142.4164  170.2408 C.3     1  UNL1        0.1050
     18 C         139.8202  142.8329  170.6734 C.3     1  UNL1        0.1595
     19 O         138.6823  141.8586  170.5966 O.3     1  UNL1       -0.3508
     20 C         138.9190  140.4677  170.0873 C.3     1  UNL1        0.1595
     21 C         140.2935  140.0512  169.6547 C.3     1  UNL1        0.1050
     22 C         143.1787  142.4070  158.9766 C.2     1  UNL1       -0.0253
     23 C         142.2990  141.6192  158.0516 C.2     1  UNL1       -0.0303
     24 C         142.8625  141.0524  156.7823 C.3     1  UNL1        0.0257
     25 C         144.3057  141.2734  156.4380 C.3     1  UNL1        0.0050
     26 C         145.1853  142.0612  157.3629 C.3     1  UNL1        0.0050
     27 C         144.6218  142.6281  158.6323 C.3     1  UNL1        0.0261
     28 C         140.3893  144.8582  158.1610 C.2     1  UNL1        0.2837
     29 O         139.2939  143.9841  158.6961 O.2     1  UNL1       -0.2665
     30 N         141.6737  145.0017  158.9224 N.am    1  UNL1       -0.2779
     31 H         142.3927  145.5753  158.5713 H       1  UNL1        0.1553
     32 C         139.8699  147.3627  155.2417 C.ar    1  UNL1        0.1469
     33 C         139.9491  146.0626  154.4976 C.ar    1  UNL1        0.1282
     34 N         140.1533  144.9662  155.5006 N.ar    1  UNL1       -0.2205
     35 C         140.2003  145.5886  156.8646 C.ar    1  UNL1        0.1958
     36 N         140.0252  147.0697  156.7046 N.ar    1  UNL1       -0.3257
     37 H         140.0141  147.7330  157.4319 H       1  UNL1        0.1682
     38 N         139.4710  150.0729  154.0187 N.1     1  UNL1       -0.1893
     39 C         139.6705  148.7178  154.6302 C.1     1  UNL1        0.1194
@<TRIPOS>BOND
     1    38    39    3
     2    39    32    1
     3    32    33   ar
     4    33    34   ar
     5    34    35   ar
     6    35    28    1
     7    28    29    2
     8    28    30   am
     9    30     1    1
    10     1     2   ar
    11     2     3   ar
    12     3     4   ar
    13     4     7    1
    14     7     8    1
    15     8     9    1
    16     9    10    1
    17    10    11   am
    18    11    12    2
    19    11    15    1
    20    15    16    1
    21    16    17    1
    22    17    18    1
    23    18    19    1
    24    19    20    1
    25    20    21    1
    26    10    13    1
    27    13    14    1
    28     4     5   ar
    29     5     6   ar
    30     6    22    1
    31    22    23    2
    32    23    24    1
    33    24    25    1
    34    25    26    1
    35    26    27    1
    36    35    36   ar
    37    36    32   ar
    38     6     1   ar
    39    27    22    1
    40    14     7    1
    41    21    16    1
    42    30    31    1
    43    36    37    1
@<TRIPOS>MOLECULE
*****
 39 43 0 0 0
SMALL
GASTEIGER

@<TRIPOS>ATOM
      1 C         140.8621  138.7026  161.1037 C.ar    1  UNL1        0.0502
      2 C         141.1397  137.6043  162.0870 C.ar    1  UNL1        0.0143
      3 C         140.8311  137.8040  163.5412 C.ar    1  UNL1       -0.0030
      4 C         140.2449  139.1020  164.0122 C.ar    1  UNL1       -0.0223
      5 C         139.9674  140.2002  163.0289 C.ar    1  UNL1       -0.0034
      6 C         140.2760  140.0005  161.5747 C.ar    1  UNL1        0.0089
      7 C         139.9363  139.3016  165.4665 C.3     1  UNL1        0.0257
      8 C         141.0265  139.6993  166.4168 C.3     1  UNL1        0.0259
      9 C         140.7179  139.8990  167.8711 C.3     1  UNL1        0.0938
     10 N         139.3191  139.7009  168.3750 N.am    1  UNL1       -0.2784
     11 C         139.0104  139.9006  169.8293 C.2     1  UNL1        0.2420
     12 O         137.6115  139.7026  170.3332 O.2     1  UNL1       -0.2734
     13 C         138.2288  139.3033  167.4246 C.3     1  UNL1        0.0938
     14 C         138.5374  139.1036  165.9704 C.3     1  UNL1        0.0259
     15 C         140.1007  140.2982  170.7796 C.3     1  UNL1        0.1588
     16 N         140.7577  141.6403  170.6481 N.3     1  UNL1       -0.2607
     17 C         142.2430  141.7677  170.8142 C.3     1  UNL1        0.1050
     18 C         142.9000  143.1097  170.6826 C.3     1  UNL1        0.1595
     19 O         142.0717  144.3243  170.3849 O.3     1  UNL1       -0.3508
     20 C         140.5864  144.1969  170.2188 C.3     1  UNL1        0.1595
     21 C         139.9295  142.8549  170.3503 C.3     1  UNL1        0.1050
     22 C         139.9984  141.0987  160.5913 C.2     1  UNL1       -0.0253
     23 C         138.6778  141.1544  159.8822 C.2     1  UNL1       -0.0303
     24 C         138.4002  142.2525  158.8989 C.3     1  UNL1        0.0257
     25 C         139.4433  143.2952  158.6247 C.3     1  UNL1        0.0050
     26 C         140.7639  143.2395  159.3339 C.3     1  UNL1        0.0050
     27 C         141.0414  142.1413  160.3172 C.3     1  UNL1        0.0261
     28 C         142.5535  138.7693  159.1327 C.2     1  UNL1        0.2837
     29 O         143.6276  139.2355  160.0703 O.2     1  UNL1       -0.2665
     30 N         141.1707  138.5029  159.6494 N.am    1  UNL1       -0.2779
     31 H         140.4657  138.1970  159.0341 H       1  UNL1        0.1553
     32 C         143.8475  138.8111  155.4736 C.ar    1  UNL1        0.1469
     33 C         142.8267  137.7139  155.4075 C.ar    1  UNL1        0.1282
     34 N         142.2177  137.5648  156.7702 N.ar    1  UNL1       -0.2205
     35 C         142.8621  138.5697  157.6784 C.ar    1  UNL1        0.1958
     36 N         143.8693  139.3400  156.8771 N.ar    1  UNL1       -0.3257
     37 H         144.4439  140.0653  157.2133 H       1  UNL1        0.1682
     38 N         145.5469  139.7778  153.1982 N.1     1  UNL1       -0.1893
     39 C         144.6972  139.2945  154.3359 C.1     1  UNL1        0.1194
@<TRIPOS>BOND
     1    38    39    3
     2    39    32    1
     3    32    33   ar
     4    33    34   ar
     5    34    35   ar
     6    35    28    1
     7    28    29    2
     8    28    30   am
     9    30     1    1
    10     1     2   ar
    11     2     3   ar
    12     3     4   ar
    13     4     7    1
    14     7     8    1
    15     8     9    1
    16     9    10    1
    17    10    11   am
    18    11    12    2
    19    11    15    1
    20    15    16    1
    21    16    17    1
    22    17    18    1
    23    18    19    1
    24    19    20    1
    25    20    21    1
    26    10    13    1
    27    13    14    1
    28     4     5   ar
    29     5     6   ar
    30     6    22    1
    31    22    23    2
    32    23    24    1
    33    24    25    1
    34    25    26    1
    35    26    27    1
    36    35    36   ar
    37    36    32   ar
    38     6     1   ar
    39    27    22    1
    40    14     7    1
    41    21    16    1
    42    30    31    1
    43    36    37    1
