@<TRIPOS>MOLECULE
*****
 32 35 0 0 0
SMALL
GASTEIGER

@<TRIPOS>ATOM
      1 C         142.9507  143.5423  164.4144 C.ar    1  UNL1        0.2041
      2 N         144.2872  143.9255  164.9773 N.ar    1  UNL1       -0.0560
      3 O         144.4037  143.3232  166.3461 O.2     1  UNL1       -0.3370
      4 C         143.1392  142.5677  166.6292 C.ar    1  UNL1        0.2378
      5 N         142.2412  142.7031  165.4354 N.ar    1  UNL1       -0.1907
      6 C         141.3506  144.7057  160.3726 C.ar    1  UNL1        0.1066
      7 C         140.7913  145.3398  161.6116 C.ar    1  UNL1        0.0185
      8 C         141.3246  144.9520  162.9588 C.ar    1  UNL1        0.0053
      9 C         142.4173  143.9301  163.0671 C.ar    1  UNL1        0.0497
     10 C         142.9766  143.2960  161.8282 C.ar    1  UNL1        0.0620
     11 CL        144.0694  142.2741  161.9364 Cl      1  UNL1       -0.0821
     12 C         142.4433  143.6838  160.4809 C.ar    1  UNL1        0.0298
     13 C         140.2839  145.4813  157.6781 C.3     1  UNL1        0.1816
     14 S         140.8173  145.0935  159.0253 S.O2    1  UNL1        0.0105
     15 O         142.0994  145.8115  158.7244 O.2     1  UNL1       -0.1686
     16 O         139.5351  144.3755  159.3262 O.2     1  UNL1       -0.1686
     17 C         142.8274  141.8099  167.8856 C.3     1  UNL1        0.0998
     18 C         142.6520  140.3209  167.8393 C.3     1  UNL1        0.1099
     19 N         142.9054  139.4974  169.0672 N.3     1  UNL1       -0.3166
     20 H         143.1863  140.1082  169.8342 H       1  UNL1        0.1192
     21 H         143.6487  138.8250  168.8782 H       1  UNL1        0.1192
     22 C         142.2234  139.6554  166.5651 C.2     1  UNL1        0.1241
     23 F         143.2489  139.2548  165.5464 F       1  UNL1       -0.2081
     24 C         140.7693  139.3905  166.3097 C.2     1  UNL1       -0.0197
     25 C         139.6357  139.7328  167.2306 C.3     1  UNL1        0.0240
     26 C         138.3592  139.2907  166.5785 C.3     1  UNL1        0.0047
     27 C         138.7038  138.6752  165.2548 C.3     1  UNL1        0.0047
     28 C         140.1933  138.7369  165.0886 C.3     1  UNL1        0.0240
     29 C         142.6909  142.5410  169.1882 C.3     1  UNL1        0.0111
     30 C         141.3384  142.9848  169.6610 C.3     1  UNL1        0.0005
     31 C         139.9557  142.6528  170.1385 C.3     1  UNL1        0.0000
     32 C         140.3782  144.0857  170.0023 C.3     1  UNL1        0.0000
@<TRIPOS>BOND
     1    13    14    1
     2    14    15    2
     3    14    16    2
     4    14     6    1
     5     6     7   ar
     6     7     8   ar
     7     8     9   ar
     8     9     1    1
     9     1     2   ar
    10     2     3   ar
    11     3     4   ar
    12     4    17    1
    13    17    29    1
    14    29    30    1
    15    30    31    1
    16    31    32    1
    17    17    18    1
    18    18    19    1
    19    18    22    1
    20    22    23    1
    21    22    24    2
    22    24    25    1
    23    25    26    1
    24    26    27    1
    25    27    28    1
    26     4     5   ar
    27     9    10   ar
    28    10    11    1
    29    10    12   ar
    30    12     6   ar
    31     5     1   ar
    32    32    30    1
    33    28    24    1
    34    19    20    1
    35    19    21    1
@<TRIPOS>MOLECULE
*****
 32 35 0 0 0
SMALL
GASTEIGER

@<TRIPOS>ATOM
      1 C         138.7682  140.0943  164.7751 C.ar    1  UNL1        0.2041
      2 N         137.8559  139.2482  165.6128 N.ar    1  UNL1       -0.0560
      3 O         138.4243  139.1868  166.9996 O.2     1  UNL1       -0.3370
      4 C         139.6878  139.9949  167.0190 C.ar    1  UNL1        0.2378
      5 N         139.9003  140.5558  165.6441 N.ar    1  UNL1       -0.1907
      6 C         138.2070  141.0759  160.4194 C.ar    1  UNL1        0.1066
      7 C         138.0806  142.1549  161.4537 C.ar    1  UNL1        0.0185
      8 C         138.2677  141.8277  162.9056 C.ar    1  UNL1        0.0053
      9 C         138.5811  140.4215  163.3232 C.ar    1  UNL1        0.0497
     10 C         138.7075  139.3426  162.2889 C.ar    1  UNL1        0.0620
     11 CL        139.0210  137.9363  162.7065 Cl      1  UNL1       -0.0821
     12 C         138.5205  139.6698  160.8370 C.ar    1  UNL1        0.0298
     13 C         137.8329  141.7303  157.5157 C.3     1  UNL1        0.1816
     14 S         138.0199  141.4031  158.9675 S.O2    1  UNL1        0.0105
     15 O         137.7747  139.9530  158.6724 O.2     1  UNL1       -0.1686
     16 O         138.2652  142.8532  159.2627 O.2     1  UNL1       -0.1686
     17 C         140.5818  140.2053  168.2049 C.3     1  UNL1        0.0998
     18 C         141.9741  139.6470  168.2029 C.3     1  UNL1        0.1099
     19 N         142.6309  139.2652  169.4963 N.3     1  UNL1       -0.3166
     20 H         141.9921  139.4505  170.2696 H       1  UNL1        0.1192
     21 H         143.4824  139.8129  169.6199 H       1  UNL1        0.1192
     22 C         142.7096  139.4707  166.9075 C.2     1  UNL1        0.1241
     23 F         142.9052  138.0973  166.3371 F       1  UNL1       -0.2081
     24 C         143.2494  140.6678  166.1826 C.2     1  UNL1       -0.0197
     25 C         143.1318  142.0953  166.6280 C.3     1  UNL1        0.0240
     26 C         143.8114  142.9573  165.6056 C.3     1  UNL1        0.0047
     27 C         144.3490  142.0626  164.5284 C.3     1  UNL1        0.0047
     28 C         144.0016  140.6475  164.8850 C.3     1  UNL1        0.0240
     29 C         140.0836  140.9738  169.3928 C.3     1  UNL1        0.0111
     30 C         140.6351  142.3368  169.6892 C.3     1  UNL1        0.0005
     31 C         140.4287  143.8128  169.8597 C.3     1  UNL1        0.0000
     32 C         141.7967  143.2219  170.0321 C.3     1  UNL1        0.0000
@<TRIPOS>BOND
     1    13    14    1
     2    14    15    2
     3    14    16    2
     4    14     6    1
     5     6     7   ar
     6     7     8   ar
     7     8     9   ar
     8     9     1    1
     9     1     2   ar
    10     2     3   ar
    11     3     4   ar
    12     4    17    1
    13    17    29    1
    14    29    30    1
    15    30    31    1
    16    31    32    1
    17    17    18    1
    18    18    19    1
    19    18    22    1
    20    22    23    1
    21    22    24    2
    22    24    25    1
    23    25    26    1
    24    26    27    1
    25    27    28    1
    26     4     5   ar
    27     9    10   ar
    28    10    11    1
    29    10    12   ar
    30    12     6   ar
    31     5     1   ar
    32    32    30    1
    33    28    24    1
    34    19    20    1
    35    19    21    1
@<TRIPOS>MOLECULE
*****
 32 35 0 0 0
SMALL
GASTEIGER

@<TRIPOS>ATOM
      1 C         138.9909  143.2281  162.6144 C.ar    1  UNL1        0.2041
      2 N         137.7357  143.6325  163.3292 N.ar    1  UNL1       -0.0560
      3 O         137.6503  142.8406  164.6003 O.2     1  UNL1       -0.3370
      4 C         138.8528  141.9467  164.6711 C.ar    1  UNL1        0.2378
      5 N         139.6813  142.1862  163.4437 N.ar    1  UNL1       -0.1907
      6 C         140.4321  144.8549  158.6740 C.ar    1  UNL1        0.1066
      7 C         139.6815  143.5570  158.7202 C.ar    1  UNL1        0.0185
      8 C         139.2011  143.0148  160.0337 C.ar    1  UNL1        0.0053
      9 C         139.4713  143.7704  161.3010 C.ar    1  UNL1        0.0497
     10 C         140.2218  145.0682  161.2548 C.ar    1  UNL1        0.0620
     11 CL        140.4920  145.8239  162.5221 Cl      1  UNL1       -0.0821
     12 C         140.7022  145.6105  159.9413 C.ar    1  UNL1        0.0298
     13 C         141.3929  145.9394  156.0471 C.3     1  UNL1        0.1816
     14 S         140.9125  145.3971  157.3606 S.O2    1  UNL1        0.0105
     15 O         139.6703  144.8840  156.6944 O.2     1  UNL1       -0.1686
     16 O         142.1546  145.9102  158.0267 O.2     1  UNL1       -0.1686
     17 C         139.1710  140.9826  165.7753 C.3     1  UNL1        0.0998
     18 C         140.1582  141.3605  166.8395 C.3     1  UNL1        0.1099
     19 N         140.2948  142.7936  167.2610 N.3     1  UNL1       -0.3166
     20 H         139.6455  143.3691  166.7246 H       1  UNL1        0.1192
     21 H         141.2497  143.1088  167.0898 H       1  UNL1        0.1192
     22 C         141.0088  140.3053  167.4823 C.2     1  UNL1        0.1241
     23 F         140.7118  139.8518  168.8809 F       1  UNL1       -0.2081
     24 C         142.1563  139.7037  166.7265 C.2     1  UNL1       -0.0197
     25 C         142.5722  140.0548  165.3287 C.3     1  UNL1        0.0240
     26 C         143.7623  139.2134  164.9740 C.3     1  UNL1        0.0047
     27 C         144.0819  138.3424  166.1526 C.3     1  UNL1        0.0047
     28 C         143.0893  138.6454  167.2357 C.3     1  UNL1        0.0240
     29 C         138.5020  139.6407  165.8152 C.3     1  UNL1        0.0111
     30 C         139.0181  138.5198  164.9626 C.3     1  UNL1        0.0005
     31 C         139.9977  137.4073  164.7327 C.3     1  UNL1        0.0000
     32 C         138.9324  137.6907  163.7154 C.3     1  UNL1        0.0000
@<TRIPOS>BOND
     1    13    14    1
     2    14    15    2
     3    14    16    2
     4    14     6    1
     5     6     7   ar
     6     7     8   ar
     7     8     9   ar
     8     9     1    1
     9     1     2   ar
    10     2     3   ar
    11     3     4   ar
    12     4    17    1
    13    17    29    1
    14    29    30    1
    15    30    31    1
    16    31    32    1
    17    17    18    1
    18    18    19    1
    19    18    22    1
    20    22    23    1
    21    22    24    2
    22    24    25    1
    23    25    26    1
    24    26    27    1
    25    27    28    1
    26     4     5   ar
    27     9    10   ar
    28    10    11    1
    29    10    12   ar
    30    12     6   ar
    31     5     1   ar
    32    32    30    1
    33    28    24    1
    34    19    20    1
    35    19    21    1
@<TRIPOS>MOLECULE
*****
 32 35 0 0 0
SMALL
GASTEIGER

@<TRIPOS>ATOM
      1 C         143.3390  143.0941  164.3003 C.ar    1  UNL1        0.2041
      2 N         144.4581  143.7099  165.0867 N.ar    1  UNL1       -0.0560
      3 O         144.3214  143.2660  166.5130 O.2     1  UNL1       -0.3370
      4 C         143.1178  142.3759  166.6081 C.ar    1  UNL1        0.2378
      5 N         142.5107  142.2697  165.2406 N.ar    1  UNL1       -0.1907
      6 C         142.5970  143.6267  159.8939 C.ar    1  UNL1        0.1066
      7 C         143.5873  142.6054  160.3697 C.ar    1  UNL1        0.0185
      8 C         143.8346  142.4279  161.8385 C.ar    1  UNL1        0.0053
      9 C         143.0917  143.2717  162.8315 C.ar    1  UNL1        0.0497
     10 C         142.1014  144.2929  162.3557 C.ar    1  UNL1        0.0620
     11 CL        141.3584  145.1367  163.3488 Cl      1  UNL1       -0.0821
     12 C         141.8541  144.4704  160.8870 C.ar    1  UNL1        0.0298
     13 C         142.1024  143.9817  156.9564 C.3     1  UNL1        0.1816
     14 S         142.3497  143.8042  158.4252 S.O2    1  UNL1        0.0105
     15 O         142.3044  145.2918  158.6126 O.2     1  UNL1       -0.1686
     16 O         142.3951  142.3166  158.2377 O.2     1  UNL1       -0.1686
     17 C         142.6104  141.7091  167.8522 C.3     1  UNL1        0.0998
     18 C         142.1297  140.2892  167.7994 C.3     1  UNL1        0.1099
     19 N         142.9897  139.1856  168.3401 N.3     1  UNL1       -0.3166
     20 H         143.8589  139.5781  168.7019 H       1  UNL1        0.1192
     21 H         143.2006  138.5225  167.5943 H       1  UNL1        0.1192
     22 C         140.7889  139.9730  167.2058 C.2     1  UNL1        0.1241
     23 F         139.5471  140.5726  167.7960 F       1  UNL1       -0.2081
     24 C         140.6899  139.0571  166.0220 C.2     1  UNL1       -0.0197
     25 C         141.8380  138.3863  165.3278 C.3     1  UNL1        0.0240
     26 C         141.2831  137.5658  164.2013 C.3     1  UNL1        0.0047
     27 C         139.7921  137.7294  164.1994 C.3     1  UNL1        0.0047
     28 C         139.4255  138.6511  165.3247 C.3     1  UNL1        0.0240
     29 C         142.5838  142.4621  169.1493 C.3     1  UNL1        0.0111
     30 C         141.2850  142.9879  169.6846 C.3     1  UNL1        0.0005
     31 C         140.3724  144.1419  169.9769 C.3     1  UNL1        0.0000
     32 C         139.9480  142.7445  170.3197 C.3     1  UNL1        0.0000
@<TRIPOS>BOND
     1    13    14    1
     2    14    15    2
     3    14    16    2
     4    14     6    1
     5     6     7   ar
     6     7     8   ar
     7     8     9   ar
     8     9     1    1
     9     1     2   ar
    10     2     3   ar
    11     3     4   ar
    12     4    17    1
    13    17    29    1
    14    29    30    1
    15    30    31    1
    16    31    32    1
    17    17    18    1
    18    18    19    1
    19    18    22    1
    20    22    23    1
    21    22    24    2
    22    24    25    1
    23    25    26    1
    24    26    27    1
    25    27    28    1
    26     4     5   ar
    27     9    10   ar
    28    10    11    1
    29    10    12   ar
    30    12     6   ar
    31     5     1   ar
    32    32    30    1
    33    28    24    1
    34    19    20    1
    35    19    21    1
@<TRIPOS>MOLECULE
*****
 32 35 0 0 0
SMALL
GASTEIGER

@<TRIPOS>ATOM
      1 C         139.7241  143.0135  163.3695 C.ar    1  UNL1        0.2041
      2 N         138.3308  142.5825  163.7202 N.ar    1  UNL1       -0.0560
      3 O         138.3474  142.0595  165.1260 O.2     1  UNL1       -0.3370
      4 C         139.7510  142.1673  165.6441 C.ar    1  UNL1        0.2378
      5 N         140.6018  142.7568  164.5585 N.ar    1  UNL1       -0.1907
      6 C         141.0398  144.7681  159.4401 C.ar    1  UNL1        0.1066
      7 C         140.2563  145.6027  160.4093 C.ar    1  UNL1        0.0185
      8 C         139.8177  145.0178  161.7191 C.ar    1  UNL1        0.0053
      9 C         140.1627  143.5984  162.0597 C.ar    1  UNL1        0.0497
     10 C         140.9462  142.7638  161.0904 C.ar    1  UNL1        0.0620
     11 CL        141.2912  141.3442  161.4310 Cl      1  UNL1       -0.0821
     12 C         141.3848  143.3487  159.7806 C.ar    1  UNL1        0.0298
     13 C         141.9170  145.9379  156.8205 C.3     1  UNL1        0.1816
     14 S         141.4784  145.3530  158.1303 S.O2    1  UNL1        0.0105
     15 O         142.7931  144.6413  158.2527 O.2     1  UNL1       -0.1686
     16 O         140.1637  146.0648  158.0079 O.2     1  UNL1       -0.1686
     17 C         140.2211  141.7574  167.0082 C.3     1  UNL1        0.0998
     18 C         140.2902  140.3040  167.3724 C.3     1  UNL1        0.1099
     19 N         139.3444  139.7403  168.3911 N.3     1  UNL1       -0.3166
     20 H         138.7289  140.4798  168.7294 H       1  UNL1        0.1192
     21 H         139.8757  139.3561  169.1724 H       1  UNL1        0.1192
     22 C         141.3051  139.4142  166.7179 C.2     1  UNL1        0.1241
     23 F         142.6911  139.3151  167.2828 F       1  UNL1       -0.2081
     24 C         140.9339  138.6235  165.4984 C.2     1  UNL1       -0.0197
     25 C         139.5943  138.6206  164.8235 C.3     1  UNL1        0.0240
     26 C         139.6697  137.6922  163.6477 C.3     1  UNL1        0.0047
     27 C         141.0558  137.1213  163.5960 C.3     1  UNL1        0.0047
     28 C         141.8372  137.6969  164.7398 C.3     1  UNL1        0.0240
     29 C         140.6223  142.8010  168.0083 C.3     1  UNL1        0.0111
     30 C         141.7778  142.5504  168.9312 C.3     1  UNL1        0.0005
     31 C         142.3110  142.3370  170.3169 C.3     1  UNL1        0.0000
     32 C         143.2462  142.3297  169.1440 C.3     1  UNL1        0.0000
@<TRIPOS>BOND
     1    13    14    1
     2    14    15    2
     3    14    16    2
     4    14     6    1
     5     6     7   ar
     6     7     8   ar
     7     8     9   ar
     8     9     1    1
     9     1     2   ar
    10     2     3   ar
    11     3     4   ar
    12     4    17    1
    13    17    29    1
    14    29    30    1
    15    30    31    1
    16    31    32    1
    17    17    18    1
    18    18    19    1
    19    18    22    1
    20    22    23    1
    21    22    24    2
    22    24    25    1
    23    25    26    1
    24    26    27    1
    25    27    28    1
    26     4     5   ar
    27     9    10   ar
    28    10    11    1
    29    10    12   ar
    30    12     6   ar
    31     5     1   ar
    32    32    30    1
    33    28    24    1
    34    19    20    1
    35    19    21    1
@<TRIPOS>MOLECULE
*****
 32 35 0 0 0
SMALL
GASTEIGER

@<TRIPOS>ATOM
      1 C         140.9923  138.5862  164.7151 C.ar    1  UNL1        0.2041
      2 N         140.9537  137.1271  164.3693 N.ar    1  UNL1       -0.0560
      3 O         141.0508  137.0014  162.8777 O.2     1  UNL1       -0.3370
      4 C         141.1495  138.3829  162.3017 C.ar    1  UNL1        0.2378
      5 N         141.1133  139.3623  163.4372 N.ar    1  UNL1       -0.1907
      6 C         140.7821  140.3290  168.8586 C.ar    1  UNL1        0.1066
      7 C         142.1103  139.9635  168.2652 C.ar    1  UNL1        0.0185
      8 C         142.1804  139.3826  166.8840 C.ar    1  UNL1        0.0053
      9 C         140.9222  139.1671  166.0963 C.ar    1  UNL1        0.0497
     10 C         139.5940  139.5326  166.6897 C.ar    1  UNL1        0.0620
     11 CL        138.3358  139.3172  165.9019 Cl      1  UNL1       -0.0821
     12 C         139.5240  140.1136  168.0708 C.ar    1  UNL1        0.0298
     13 C         140.6420  141.4909  171.6209 C.3     1  UNL1        0.1816
     14 S         140.7120  140.9100  170.2397 S.O2    1  UNL1        0.0105
     15 O         141.7982  141.8822  169.8859 O.2     1  UNL1       -0.1686
     16 O         139.6259  139.9378  170.5936 O.2     1  UNL1       -0.1686
     17 C         141.2642  138.7249  160.8457 C.3     1  UNL1        0.0998
     18 C         142.6054  139.0407  160.2529 C.3     1  UNL1        0.1099
     19 N         143.3472  137.9939  159.4760 N.3     1  UNL1       -0.3166
     20 H         142.7971  137.1353  159.4512 H       1  UNL1        0.1192
     21 H         144.2447  137.8098  159.9245 H       1  UNL1        0.1192
     22 C         143.2047  140.4035  160.4370 C.2     1  UNL1        0.1241
     23 F         142.9564  141.4759  159.4181 F       1  UNL1       -0.2081
     24 C         144.0522  140.6938  161.6401 C.2     1  UNL1       -0.0197
     25 C         144.3864  139.7270  162.7373 C.3     1  UNL1        0.0240
     26 C         145.2551  140.4375  163.7325 C.3     1  UNL1        0.0047
     27 C         145.4578  141.8434  163.2505 C.3     1  UNL1        0.0047
     28 C         144.7143  142.0018  161.9573 C.3     1  UNL1        0.0240
     29 C         140.0377  138.7511  159.9825 C.3     1  UNL1        0.0111
     30 C         138.6926  138.9998  160.5981 C.3     1  UNL1        0.0005
     31 C         137.4331  139.8098  160.6841 C.3     1  UNL1        0.0000
     32 C         137.6224  138.6204  161.5783 C.3     1  UNL1        0.0000
@<TRIPOS>BOND
     1    13    14    1
     2    14    15    2
     3    14    16    2
     4    14     6    1
     5     6     7   ar
     6     7     8   ar
     7     8     9   ar
     8     9     1    1
     9     1     2   ar
    10     2     3   ar
    11     3     4   ar
    12     4    17    1
    13    17    29    1
    14    29    30    1
    15    30    31    1
    16    31    32    1
    17    17    18    1
    18    18    19    1
    19    18    22    1
    20    22    23    1
    21    22    24    2
    22    24    25    1
    23    25    26    1
    24    26    27    1
    25    27    28    1
    26     4     5   ar
    27     9    10   ar
    28    10    11    1
    29    10    12   ar
    30    12     6   ar
    31     5     1   ar
    32    32    30    1
    33    28    24    1
    34    19    20    1
    35    19    21    1
@<TRIPOS>MOLECULE
*****
 32 35 0 0 0
SMALL
GASTEIGER

@<TRIPOS>ATOM
      1 C         140.6546  138.2960  162.8426 C.ar    1  UNL1        0.2041
      2 N         139.8430  137.2481  163.5450 N.ar    1  UNL1       -0.0560
      3 O         139.7764  137.6108  164.9990 O.2     1  UNL1       -0.3370
      4 C         140.5468  138.8828  165.1952 C.ar    1  UNL1        0.2378
      5 N         141.0896  139.3062  163.8625 N.ar    1  UNL1       -0.1907
      6 C         141.6158  138.3918  158.4475 C.ar    1  UNL1        0.1066
      7 C         140.2031  138.5911  158.9108 C.ar    1  UNL1        0.0185
      8 C         139.8828  138.5592  160.3759 C.ar    1  UNL1        0.0053
      9 C         140.9750  138.3279  161.3776 C.ar    1  UNL1        0.0497
     10 C         142.3876  138.1285  160.9142 C.ar    1  UNL1        0.0620
     11 CL        143.4800  137.8972  161.9160 Cl      1  UNL1       -0.0821
     12 C         142.7080  138.1605  159.4492 C.ar    1  UNL1        0.0298
     13 C         142.2565  138.4556  155.5174 C.3     1  UNL1        0.1816
     14 S         141.9361  138.4237  156.9825 S.O2    1  UNL1        0.0105
     15 O         140.5354  138.8709  156.6859 O.2     1  UNL1       -0.1686
     16 O         143.3369  137.9765  157.2790 O.2     1  UNL1       -0.1686
     17 C         140.7405  139.6047  166.4958 C.3     1  UNL1        0.0998
     18 C         142.1180  140.0063  166.9327 C.3     1  UNL1        0.1099
     19 N         142.9260  139.0895  167.8026 N.3     1  UNL1       -0.3166
     20 H         142.3884  138.2450  167.9982 H       1  UNL1        0.1192
     21 H         143.1490  139.5612  168.6790 H       1  UNL1        0.1192
     22 C         142.6877  141.3247  166.4998 C.2     1  UNL1        0.1241
     23 F         142.2201  142.5933  167.1493 F       1  UNL1       -0.2081
     24 C         143.7249  141.3744  165.4173 C.2     1  UNL1       -0.0197
     25 C         144.2869  140.1953  164.6799 C.3     1  UNL1        0.0240
     26 C         145.2916  140.7041  163.6891 C.3     1  UNL1        0.0047
     27 C         145.3505  142.1977  163.8141 C.3     1  UNL1        0.0047
     28 C         144.3822  142.6120  164.8823 C.3     1  UNL1        0.0240
     29 C         139.5565  139.9249  167.3593 C.3     1  UNL1        0.0111
     30 C         139.7622  140.4523  168.7484 C.3     1  UNL1        0.0005
     31 C         139.8973  141.6111  169.6912 C.3     1  UNL1        0.0000
     32 C         139.9835  140.2068  170.2116 C.3     1  UNL1        0.0000
@<TRIPOS>BOND
     1    13    14    1
     2    14    15    2
     3    14    16    2
     4    14     6    1
     5     6     7   ar
     6     7     8   ar
     7     8     9   ar
     8     9     1    1
     9     1     2   ar
    10     2     3   ar
    11     3     4   ar
    12     4    17    1
    13    17    29    1
    14    29    30    1
    15    30    31    1
    16    31    32    1
    17    17    18    1
    18    18    19    1
    19    18    22    1
    20    22    23    1
    21    22    24    2
    22    24    25    1
    23    25    26    1
    24    26    27    1
    25    27    28    1
    26     4     5   ar
    27     9    10   ar
    28    10    11    1
    29    10    12   ar
    30    12     6   ar
    31     5     1   ar
    32    32    30    1
    33    28    24    1
    34    19    20    1
    35    19    21    1
@<TRIPOS>MOLECULE
*****
 32 35 0 0 0
SMALL
GASTEIGER

@<TRIPOS>ATOM
      1 C         140.4852  138.6738  164.3037 C.ar    1  UNL1        0.2041
      2 N         140.7759  137.3228  163.7203 N.ar    1  UNL1       -0.0560
      3 O         140.3060  137.3222  162.2958 O.2     1  UNL1       -0.3370
      4 C         139.7249  138.6728  161.9988 C.ar    1  UNL1        0.2378
      5 N         139.8357  139.5081  163.2398 N.ar    1  UNL1       -0.1907
      6 C         141.4011  139.9923  168.5076 C.ar    1  UNL1        0.1066
      7 C         142.5141  139.5717  167.5942 C.ar    1  UNL1        0.0185
      8 C         142.2088  139.1322  166.1929 C.ar    1  UNL1        0.0053
      9 C         140.7905  139.1133  165.7050 C.ar    1  UNL1        0.0497
     10 C         139.6776  139.5339  166.6184 C.ar    1  UNL1        0.0620
     11 CL        138.2592  139.5150  166.1305 Cl      1  UNL1       -0.0821
     12 C         139.9829  139.9734  168.0197 C.ar    1  UNL1        0.0298
     13 C         142.0117  140.8712  171.3102 C.3     1  UNL1        0.1816
     14 S         141.7064  140.4317  169.9089 S.O2    1  UNL1        0.0105
     15 O         140.2969  140.9213  170.0625 O.2     1  UNL1       -0.1686
     16 O         143.1160  139.9422  169.7553 O.2     1  UNL1       -0.1686
     17 C         139.1363  139.1111  160.6906 C.3     1  UNL1        0.0998
     18 C         138.0199  140.1127  160.6685 C.3     1  UNL1        0.1099
     19 N         136.5964  139.6473  160.5841 N.3     1  UNL1       -0.3166
     20 H         136.5734  138.6281  160.5500 H       1  UNL1        0.1192
     21 H         136.1645  140.0255  159.7410 H       1  UNL1        0.1192
     22 C         138.3270  141.5796  160.7310 C.2     1  UNL1        0.1241
     23 F         138.8857  142.2807  159.5284 F       1  UNL1       -0.2081
     24 C         138.0753  142.3454  161.9960 C.2     1  UNL1       -0.0197
     25 C         137.5230  141.7828  163.2721 C.3     1  UNL1        0.0240
     26 C         137.4382  142.8979  164.2718 C.3     1  UNL1        0.0047
     27 C         137.9380  144.1496  163.6135 C.3     1  UNL1        0.0047
     28 C         138.3318  143.8081  162.2070 C.3     1  UNL1        0.0240
     29 C         139.6641  138.5479  159.4044 C.3     1  UNL1        0.0111
     30 C         141.0290  138.9374  158.9194 C.3     1  UNL1        0.0005
     31 C         142.0041  139.9955  158.4957 C.3     1  UNL1        0.0000
     32 C         142.4181  138.5537  158.5028 C.3     1  UNL1        0.0000
@<TRIPOS>BOND
     1    13    14    1
     2    14    15    2
     3    14    16    2
     4    14     6    1
     5     6     7   ar
     6     7     8   ar
     7     8     9   ar
     8     9     1    1
     9     1     2   ar
    10     2     3   ar
    11     3     4   ar
    12     4    17    1
    13    17    29    1
    14    29    30    1
    15    30    31    1
    16    31    32    1
    17    17    18    1
    18    18    19    1
    19    18    22    1
    20    22    23    1
    21    22    24    2
    22    24    25    1
    23    25    26    1
    24    26    27    1
    25    27    28    1
    26     4     5   ar
    27     9    10   ar
    28    10    11    1
    29    10    12   ar
    30    12     6   ar
    31     5     1   ar
    32    32    30    1
    33    28    24    1
    34    19    20    1
    35    19    21    1
@<TRIPOS>MOLECULE
*****
 32 35 0 0 0
SMALL
GASTEIGER

@<TRIPOS>ATOM
      1 C         139.4605  139.0551  163.6853 C.ar    1  UNL1        0.2041
      2 N         138.7823  137.9971  164.5041 N.ar    1  UNL1       -0.0560
      3 O         139.1291  138.2322  165.9444 O.2     1  UNL1       -0.3370
      4 C         140.0217  139.4356  166.0157 C.ar    1  UNL1        0.2378
      5 N         140.2265  139.9442  164.6195 N.ar    1  UNL1       -0.1907
      6 C         139.2364  139.4864  159.2116 C.ar    1  UNL1        0.1066
      7 C         138.2079  140.1467  160.0812 C.ar    1  UNL1        0.0185
      8 C         138.2826  140.0030  161.5724 C.ar    1  UNL1        0.0053
      9 C         139.3858  139.1989  162.1940 C.ar    1  UNL1        0.0497
     10 C         140.4142  138.5386  161.3244 C.ar    1  UNL1        0.0620
     11 CL        141.5174  137.7344  161.9461 Cl      1  UNL1       -0.0821
     12 C         140.3395  138.6823  159.8332 C.ar    1  UNL1        0.0298
     13 C         139.0870  139.7739  156.2291 C.3     1  UNL1        0.1816
     14 S         139.1617  139.6302  157.7203 S.O2    1  UNL1        0.0105
     15 O         140.5651  139.1144  157.6003 O.2     1  UNL1       -0.1686
     16 O         137.7582  140.1459  157.8404 O.2     1  UNL1       -0.1686
     17 C         140.6068  140.0267  167.2640 C.3     1  UNL1        0.0998
     18 C         142.0953  140.1271  167.4200 C.3     1  UNL1        0.1099
     19 N         142.8129  139.2157  168.3709 N.3     1  UNL1       -0.3166
     20 H         142.1393  138.5974  168.8229 H       1  UNL1        0.1192
     21 H         143.2922  139.7721  169.0788 H       1  UNL1        0.1192
     22 C         142.8661  141.1390  166.6250 C.2     1  UNL1        0.1241
     23 F         142.8649  142.5798  167.0425 F       1  UNL1       -0.2081
     24 C         143.6381  140.7102  165.4126 C.2     1  UNL1       -0.0197
     25 C         143.7325  139.3125  164.8761 C.3     1  UNL1        0.0240
     26 C         144.6041  139.3423  163.6557 C.3     1  UNL1        0.0047
     27 C         145.0484  140.7583  163.4378 C.3     1  UNL1        0.0047
     28 C         144.4514  141.6037  164.5236 C.3     1  UNL1        0.0240
     29 C         139.7034  140.5173  168.3564 C.3     1  UNL1        0.0111
     30 C         140.0591  141.7559  169.1240 C.3     1  UNL1        0.0005
     31 C         140.4712  143.1980  169.1444 C.3     1  UNL1        0.0000
     32 C         140.2629  142.4592  170.4332 C.3     1  UNL1        0.0000
@<TRIPOS>BOND
     1    13    14    1
     2    14    15    2
     3    14    16    2
     4    14     6    1
     5     6     7   ar
     6     7     8   ar
     7     8     9   ar
     8     9     1    1
     9     1     2   ar
    10     2     3   ar
    11     3     4   ar
    12     4    17    1
    13    17    29    1
    14    29    30    1
    15    30    31    1
    16    31    32    1
    17    17    18    1
    18    18    19    1
    19    18    22    1
    20    22    23    1
    21    22    24    2
    22    24    25    1
    23    25    26    1
    24    26    27    1
    25    27    28    1
    26     4     5   ar
    27     9    10   ar
    28    10    11    1
    29    10    12   ar
    30    12     6   ar
    31     5     1   ar
    32    32    30    1
    33    28    24    1
    34    19    20    1
    35    19    21    1
