@<TRIPOS>MOLECULE
*****
 25 27 0 0 0
SMALL
GASTEIGER

@<TRIPOS>ATOM
      1 C         138.5256  139.0743  165.8712 C.ar    1  UNL1        0.1709
      2 C         139.2581  139.9487  166.8454 C.ar    1  UNL1        0.1329
      3 N         138.7021  139.6854  168.2135 N.ar    1  UNL1       -0.2244
      4 N         137.6261  138.6483  168.0848 N.ar    1  UNL1       -0.0622
      5 N         137.5170  138.2706  166.6373 N.ar    1  UNL1       -0.1138
      6 N         138.7606  139.0141  164.3910 N.pl3   1  UNL1       -0.3142
      7 H         138.1475  139.4779  163.7760 H       1  UNL1        0.1483
      8 C         139.9297  138.2473  163.8477 C.3     1  UNL1        0.1058
      9 C         141.1839  138.9705  163.4552 C.3     1  UNL1        0.0935
     10 C         142.9365  138.4748  165.8391 C.3     1  UNL1        0.0173
     11 C         142.5497  139.8765  165.4711 C.3     1  UNL1        0.0575
     12 C         143.0391  141.0304  166.2950 C.3     1  UNL1        0.0160
     13 C         142.6523  142.4322  165.9270 C.3     1  UNL1        0.0028
     14 C         141.7761  142.6801  164.7351 C.3     1  UNL1        0.0160
     15 C         141.2866  141.5262  163.9112 C.3     1  UNL1        0.0575
     16 C         140.4103  141.7740  162.7193 C.3     1  UNL1        0.0173
     17 N         141.6734  140.1244  164.2792 N.3     1  UNL1       -0.2738
     18 C         139.1445  140.3437  169.4866 C.3     1  UNL1        0.1556
     19 C         140.5373  140.8880  169.6048 C.ar    1  UNL1        0.0023
     20 C         140.7803  142.3621  169.4707 C.ar    1  UNL1       -0.0000
     21 C         142.1731  142.9064  169.5889 C.ar    1  UNL1        0.0294
     22 C         143.3228  141.9766  169.8411 C.ar    1  UNL1        0.1401
     23 F         144.7156  142.5209  169.9593 F       1  UNL1       -0.2042
     24 C         143.0798  140.5025  169.9752 C.ar    1  UNL1        0.0294
     25 C         141.6870  139.9582  169.8570 C.ar    1  UNL1       -0.0000
@<TRIPOS>BOND
     1    11    10    1
     2    11    12    1
     3    12    13    1
     4    13    14    1
     5    14    15    1
     6    15    16    1
     7    15    17    1
     8    17     9    1
     9     9     8    1
    10     8     6    1
    11     6     1    1
    12     1     2   ar
    13     2     3   ar
    14     3    18    1
    15    18    19    1
    16    19    20   ar
    17    20    21   ar
    18    21    22   ar
    19    22    23    1
    20    22    24   ar
    21    24    25   ar
    22     3     4   ar
    23     4     5   ar
    24    17    11    1
    25     5     1   ar
    26    25    19   ar
    27     6     7    1
@<TRIPOS>MOLECULE
*****
 25 27 0 0 0
SMALL
GASTEIGER

@<TRIPOS>ATOM
      1 C         138.6309  139.1202  165.8213 C.ar    1  UNL1        0.1709
      2 C         139.3855  139.9327  166.8314 C.ar    1  UNL1        0.1329
      3 N         138.7809  139.6740  168.1796 N.ar    1  UNL1       -0.2244
      4 N         137.6527  138.7015  168.0027 N.ar    1  UNL1       -0.0622
      5 N         137.5599  138.3592  166.5452 N.ar    1  UNL1       -0.1138
      6 N         138.9000  139.0763  164.3463 N.pl3   1  UNL1       -0.3142
      7 H         138.1999  138.7666  163.7272 H       1  UNL1        0.1483
      8 C         140.2356  139.5043  163.8145 C.3     1  UNL1        0.1058
      9 C         140.3917  140.8529  163.1765 C.3     1  UNL1        0.0935
     10 C         141.7672  142.3562  165.3784 C.3     1  UNL1        0.0173
     11 C         140.4216  142.8050  164.8907 C.3     1  UNL1        0.0575
     12 C         139.7637  144.0055  165.5040 C.3     1  UNL1        0.0160
     13 C         138.4181  144.4543  165.0163 C.3     1  UNL1        0.0028
     14 C         137.7304  143.7027  163.9153 C.3     1  UNL1        0.0160
     15 C         138.3882  142.5023  163.3021 C.3     1  UNL1        0.0575
     16 C         137.7005  141.7506  162.2011 C.3     1  UNL1        0.0173
     17 N         139.7339  142.0534  163.7898 N.3     1  UNL1       -0.2738
     18 C         139.2264  140.2811  169.4768 C.3     1  UNL1        0.1556
     19 C         140.6035  140.8631  169.5987 C.ar    1  UNL1        0.0023
     20 C         140.8239  142.3262  169.3525 C.ar    1  UNL1       -0.0000
     21 C         142.2010  142.9082  169.4744 C.ar    1  UNL1        0.0294
     22 C         143.3577  142.0270  169.8425 C.ar    1  UNL1        0.1401
     23 F         144.7349  142.6089  169.9644 F       1  UNL1       -0.2042
     24 C         143.1374  140.5638  170.0888 C.ar    1  UNL1        0.0294
     25 C         141.7602  139.9819  169.9669 C.ar    1  UNL1       -0.0000
@<TRIPOS>BOND
     1    11    10    1
     2    11    12    1
     3    12    13    1
     4    13    14    1
     5    14    15    1
     6    15    16    1
     7    15    17    1
     8    17     9    1
     9     9     8    1
    10     8     6    1
    11     6     1    1
    12     1     2   ar
    13     2     3   ar
    14     3    18    1
    15    18    19    1
    16    19    20   ar
    17    20    21   ar
    18    21    22   ar
    19    22    23    1
    20    22    24   ar
    21    24    25   ar
    22     3     4   ar
    23     4     5   ar
    24    17    11    1
    25     5     1   ar
    26    25    19   ar
    27     6     7    1
@<TRIPOS>MOLECULE
*****
 25 27 0 0 0
SMALL
GASTEIGER

@<TRIPOS>ATOM
      1 C         142.5482  144.8530  163.2772 C.ar    1  UNL1        0.1709
      2 C         142.7033  143.7274  164.2565 C.ar    1  UNL1        0.1329
      3 N         143.9312  142.9519  163.8808 N.ar    1  UNL1       -0.2244
      4 N         144.5349  143.5983  162.6693 N.ar    1  UNL1       -0.0622
      5 N         143.6802  144.7732  162.2963 N.ar    1  UNL1       -0.1138
      6 N         141.4534  145.8783  163.2787 N.pl3   1  UNL1       -0.3142
      7 H         141.4478  146.5915  163.9573 H       1  UNL1        0.1483
      8 C         140.3671  145.8169  162.2462 C.3     1  UNL1        0.1058
      9 C         139.1789  144.9267  162.4596 C.3     1  UNL1        0.0935
     10 C         140.0516  142.4658  160.9822 C.3     1  UNL1        0.0173
     11 C         139.7733  142.3975  162.4546 C.3     1  UNL1        0.0575
     12 C         139.9315  141.0988  163.1883 C.3     1  UNL1        0.0160
     13 C         139.6532  141.0305  164.6607 C.3     1  UNL1        0.0028
     14 C         139.2169  142.2609  165.3994 C.3     1  UNL1        0.0160
     15 C         139.0588  143.5596  164.6657 C.3     1  UNL1        0.0575
     16 C         138.6224  144.7900  165.4044 C.3     1  UNL1        0.0173
     17 N         139.3370  143.6279  163.1933 N.3     1  UNL1       -0.2738
     18 C         144.4620  141.7425  164.5918 C.3     1  UNL1        0.1556
     19 C         143.6543  140.4791  164.6280 C.ar    1  UNL1        0.0023
     20 C         143.4404  139.6894  163.3708 C.ar    1  UNL1       -0.0000
     21 C         142.6326  138.4260  163.4069 C.ar    1  UNL1        0.0294
     22 C         142.0388  137.9523  164.7004 C.ar    1  UNL1        0.1401
     23 F         141.2310  136.6888  164.7366 F       1  UNL1       -0.2042
     24 C         142.2526  138.7419  165.9576 C.ar    1  UNL1        0.0294
     25 C         143.0604  140.0054  165.9214 C.ar    1  UNL1       -0.0000
@<TRIPOS>BOND
     1    11    10    1
     2    11    12    1
     3    12    13    1
     4    13    14    1
     5    14    15    1
     6    15    16    1
     7    15    17    1
     8    17     9    1
     9     9     8    1
    10     8     6    1
    11     6     1    1
    12     1     2   ar
    13     2     3   ar
    14     3    18    1
    15    18    19    1
    16    19    20   ar
    17    20    21   ar
    18    21    22   ar
    19    22    23    1
    20    22    24   ar
    21    24    25   ar
    22     3     4   ar
    23     4     5   ar
    24    17    11    1
    25     5     1   ar
    26    25    19   ar
    27     6     7    1
@<TRIPOS>MOLECULE
*****
 25 27 0 0 0
SMALL
GASTEIGER

@<TRIPOS>ATOM
      1 C         140.5435  144.6753  162.6561 C.ar    1  UNL1        0.1709
      2 C         140.0604  143.2560  162.6092 C.ar    1  UNL1        0.1329
      3 N         138.5632  143.2786  162.5208 N.ar    1  UNL1       -0.2244
      4 N         138.1209  144.7120  162.5131 N.ar    1  UNL1       -0.0622
      5 N         139.3449  145.5751  162.5967 N.ar    1  UNL1       -0.1138
      6 N         141.9741  145.1172  162.7465 N.pl3   1  UNL1       -0.3142
      7 H         142.1950  146.0764  162.7298 H       1  UNL1        0.1483
      8 C         143.0681  144.0976  162.8624 C.3     1  UNL1        0.1058
      9 C         143.5469  143.6618  164.2155 C.3     1  UNL1        0.0935
     10 C         141.2242  142.6661  165.8322 C.3     1  UNL1        0.0173
     11 C         142.3098  141.7182  165.4164 C.3     1  UNL1        0.0575
     12 C         142.2341  140.2725  165.8090 C.3     1  UNL1        0.0160
     13 C         143.3198  139.3246  165.3932 C.3     1  UNL1        0.0028
     14 C         144.4811  139.8224  164.5849 C.3     1  UNL1        0.0160
     15 C         144.5568  141.2681  164.1924 C.3     1  UNL1        0.0575
     16 C         145.7182  141.7660  163.3840 C.3     1  UNL1        0.0173
     17 N         143.4712  142.2160  164.6081 N.3     1  UNL1       -0.2738
     18 C         137.6658  142.0787  162.4522 C.3     1  UNL1        0.1556
     19 C         138.0290  140.8271  163.1950 C.ar    1  UNL1        0.0023
     20 C         138.1271  140.8449  164.6917 C.ar    1  UNL1       -0.0000
     21 C         138.4903  139.5934  165.4344 C.ar    1  UNL1        0.0294
     22 C         138.7554  138.3240  164.6805 C.ar    1  UNL1        0.1401
     23 F         139.1187  137.0724  165.4232 F       1  UNL1       -0.2042
     24 C         138.6574  138.3061  163.1838 C.ar    1  UNL1        0.0294
     25 C         138.2941  139.5578  162.4410 C.ar    1  UNL1       -0.0000
@<TRIPOS>BOND
     1    11    10    1
     2    11    12    1
     3    12    13    1
     4    13    14    1
     5    14    15    1
     6    15    16    1
     7    15    17    1
     8    17     9    1
     9     9     8    1
    10     8     6    1
    11     6     1    1
    12     1     2   ar
    13     2     3   ar
    14     3    18    1
    15    18    19    1
    16    19    20   ar
    17    20    21   ar
    18    21    22   ar
    19    22    23    1
    20    22    24   ar
    21    24    25   ar
    22     3     4   ar
    23     4     5   ar
    24    17    11    1
    25     5     1   ar
    26    25    19   ar
    27     6     7    1
@<TRIPOS>MOLECULE
*****
 25 27 0 0 0
SMALL
GASTEIGER

@<TRIPOS>ATOM
      1 C         142.3166  144.8080  163.9205 C.ar    1  UNL1        0.1709
      2 C         141.8661  143.4395  164.3380 C.ar    1  UNL1        0.1329
      3 N         143.0300  142.7440  164.9796 N.ar    1  UNL1       -0.2244
      4 N         144.1999  143.6826  164.9586 N.ar    1  UNL1       -0.0622
      5 N         143.7589  144.9582  164.3040 N.ar    1  UNL1       -0.1138
      6 N         141.4729  145.8443  163.2391 N.pl3   1  UNL1       -0.3142
      7 H         141.4875  146.7765  163.5552 H       1  UNL1        0.1483
      8 C         140.6070  145.4602  162.0760 C.3     1  UNL1        0.1058
      9 C         139.1399  145.2232  162.2793 C.3     1  UNL1        0.0935
     10 C         138.5162  144.7315  165.1723 C.3     1  UNL1        0.0173
     11 C         138.3403  143.6300  164.1694 C.3     1  UNL1        0.0575
     12 C         137.8526  142.2826  164.6130 C.3     1  UNL1        0.0160
     13 C         137.6768  141.1811  163.6101 C.3     1  UNL1        0.0028
     14 C         137.9887  141.4270  162.1636 C.3     1  UNL1        0.0160
     15 C         138.4763  142.7743  161.7201 C.3     1  UNL1        0.0575
     16 C         138.7882  143.0202  160.2735 C.3     1  UNL1        0.0173
     17 N         138.6522  143.8758  162.7229 N.3     1  UNL1       -0.2738
     18 C         143.0249  141.3539  165.5432 C.3     1  UNL1        0.1556
     19 C         141.7295  140.7103  165.9400 C.ar    1  UNL1        0.0023
     20 C         141.1704  139.5837  165.1225 C.ar    1  UNL1       -0.0000
     21 C         139.8749  138.9400  165.5193 C.ar    1  UNL1        0.0294
     22 C         139.1385  139.4230  166.7335 C.ar    1  UNL1        0.1401
     23 F         137.8430  138.7793  167.1304 F       1  UNL1       -0.2042
     24 C         139.6975  140.5496  167.5511 C.ar    1  UNL1        0.0294
     25 C         140.9931  141.1932  167.1542 C.ar    1  UNL1       -0.0000
@<TRIPOS>BOND
     1    11    10    1
     2    11    12    1
     3    12    13    1
     4    13    14    1
     5    14    15    1
     6    15    16    1
     7    15    17    1
     8    17     9    1
     9     9     8    1
    10     8     6    1
    11     6     1    1
    12     1     2   ar
    13     2     3   ar
    14     3    18    1
    15    18    19    1
    16    19    20   ar
    17    20    21   ar
    18    21    22   ar
    19    22    23    1
    20    22    24   ar
    21    24    25   ar
    22     3     4   ar
    23     4     5   ar
    24    17    11    1
    25     5     1   ar
    26    25    19   ar
    27     6     7    1
@<TRIPOS>MOLECULE
*****
 25 27 0 0 0
SMALL
GASTEIGER

@<TRIPOS>ATOM
      1 C         141.0256  144.7502  162.3165 C.ar    1  UNL1        0.1709
      2 C         140.4736  143.3610  162.1924 C.ar    1  UNL1        0.1329
      3 N         138.9768  143.4517  162.2311 N.ar    1  UNL1       -0.2244
      4 N         138.6037  144.8970  162.3792 N.ar    1  UNL1       -0.0622
      5 N         139.8699  145.6995  162.4319 N.ar    1  UNL1       -0.1138
      6 N         142.4781  145.1244  162.3238 N.pl3   1  UNL1       -0.3142
      7 H         142.7521  146.0386  162.0819 H       1  UNL1        0.1483
      8 C         143.5131  144.1059  162.6997 C.3     1  UNL1        0.1058
      9 C         143.6905  143.7117  164.1361 C.3     1  UNL1        0.0935
     10 C         145.7519  141.6165  163.5355 C.3     1  UNL1        0.0173
     11 C         144.4912  141.2431  164.2574 C.3     1  UNL1        0.0575
     12 C         144.2611  139.8221  164.6790 C.3     1  UNL1        0.0160
     13 C         143.0004  139.4486  165.4009 C.3     1  UNL1        0.0028
     14 C         141.9697  140.4962  165.7012 C.3     1  UNL1        0.0160
     15 C         142.1998  141.9172  165.2796 C.3     1  UNL1        0.0575
     16 C         141.1690  142.9648  165.5799 C.3     1  UNL1        0.0173
     17 N         143.4605  142.2906  164.5577 N.3     1  UNL1       -0.2738
     18 C         138.0210  142.2994  162.1381 C.3     1  UNL1        0.1556
     19 C         138.2240  141.0856  162.9956 C.ar    1  UNL1        0.0023
     20 C         138.5583  139.7674  162.3626 C.ar    1  UNL1       -0.0000
     21 C         138.7613  138.5536  163.2201 C.ar    1  UNL1        0.0294
     22 C         138.6300  138.6579  164.7107 C.ar    1  UNL1        0.1401
     23 F         138.8330  137.4440  165.5682 F       1  UNL1       -0.2042
     24 C         138.2958  139.9760  165.3438 C.ar    1  UNL1        0.0294
     25 C         138.0928  141.1899  164.4862 C.ar    1  UNL1       -0.0000
@<TRIPOS>BOND
     1    11    10    1
     2    11    12    1
     3    12    13    1
     4    13    14    1
     5    14    15    1
     6    15    16    1
     7    15    17    1
     8    17     9    1
     9     9     8    1
    10     8     6    1
    11     6     1    1
    12     1     2   ar
    13     2     3   ar
    14     3    18    1
    15    18    19    1
    16    19    20   ar
    17    20    21   ar
    18    21    22   ar
    19    22    23    1
    20    22    24   ar
    21    24    25   ar
    22     3     4   ar
    23     4     5   ar
    24    17    11    1
    25     5     1   ar
    26    25    19   ar
    27     6     7    1
@<TRIPOS>MOLECULE
*****
 25 27 0 0 0
SMALL
GASTEIGER

@<TRIPOS>ATOM
      1 C         142.2930  144.9073  163.9291 C.ar    1  UNL1        0.1709
      2 C         141.8690  143.5994  164.5289 C.ar    1  UNL1        0.1329
      3 N         143.0774  142.9583  165.1444 N.ar    1  UNL1       -0.2244
      4 N         144.2482  143.8700  164.9250 N.ar    1  UNL1       -0.0622
      5 N         143.7634  145.0745  164.1739 N.ar    1  UNL1       -0.1138
      6 N         141.4028  145.8776  163.2107 N.pl3   1  UNL1       -0.3142
      7 H         141.3615  146.8169  163.5027 H       1  UNL1        0.1483
      8 C         140.5756  145.4168  162.0474 C.3     1  UNL1        0.1058
      9 C         139.1061  145.1719  162.2223 C.3     1  UNL1        0.0935
     10 C         138.7891  142.9469  160.2351 C.3     1  UNL1        0.0173
     11 C         138.4598  142.7146  161.6799 C.3     1  UNL1        0.0575
     12 C         137.9721  141.3698  162.1312 C.3     1  UNL1        0.0160
     13 C         137.6429  141.1375  163.5761 C.3     1  UNL1        0.0028
     14 C         137.8014  142.2499  164.5697 C.3     1  UNL1        0.0160
     15 C         138.2891  143.5947  164.1184 C.3     1  UNL1        0.0575
     16 C         138.4476  144.7072  165.1120 C.3     1  UNL1        0.0173
     17 N         138.6183  143.8270  162.6735 N.3     1  UNL1       -0.2738
     18 C         143.1094  141.6375  165.8545 C.3     1  UNL1        0.1556
     19 C         141.9629  141.2296  166.7315 C.ar    1  UNL1        0.0023
     20 C         140.8250  140.4379  166.1584 C.ar    1  UNL1       -0.0000
     21 C         139.6785  140.0300  167.0354 C.ar    1  UNL1        0.0294
     22 C         139.6699  140.4138  168.4855 C.ar    1  UNL1        0.1401
     23 F         138.5233  140.0058  169.3625 F       1  UNL1       -0.2042
     24 C         140.8077  141.2055  169.0586 C.ar    1  UNL1        0.0294
     25 C         141.9543  141.6134  168.1815 C.ar    1  UNL1       -0.0000
@<TRIPOS>BOND
     1    11    10    1
     2    11    12    1
     3    12    13    1
     4    13    14    1
     5    14    15    1
     6    15    16    1
     7    15    17    1
     8    17     9    1
     9     9     8    1
    10     8     6    1
    11     6     1    1
    12     1     2   ar
    13     2     3   ar
    14     3    18    1
    15    18    19    1
    16    19    20   ar
    17    20    21   ar
    18    21    22   ar
    19    22    23    1
    20    22    24   ar
    21    24    25   ar
    22     3     4   ar
    23     4     5   ar
    24    17    11    1
    25     5     1   ar
    26    25    19   ar
    27     6     7    1
@<TRIPOS>MOLECULE
*****
 25 27 0 0 0
SMALL
GASTEIGER

@<TRIPOS>ATOM
      1 C         138.3141  140.8133  165.0088 C.ar    1  UNL1        0.1709
      2 C         139.7155  141.2471  165.3213 C.ar    1  UNL1        0.1329
      3 N         140.3481  140.1898  166.1770 N.ar    1  UNL1       -0.2244
      4 N         139.3375  139.1027  166.3933 N.ar    1  UNL1       -0.0622
      5 N         138.0804  139.4880  165.6713 N.ar    1  UNL1       -0.1138
      6 N         137.3206  141.5717  164.1794 N.pl3   1  UNL1       -0.3142
      7 H         136.4394  141.8007  164.5540 H       1  UNL1        0.1483
      8 C         137.6698  141.9814  162.7793 C.3     1  UNL1        0.1058
      9 C         138.0240  143.4082  162.4816 C.3     1  UNL1        0.0935
     10 C         139.9627  142.9302  160.2426 C.3     1  UNL1        0.0173
     11 C         140.4148  143.6313  161.4893 C.3     1  UNL1        0.0575
     12 C         141.8361  144.0934  161.6164 C.3     1  UNL1        0.0160
     13 C         142.2881  144.7945  162.8631 C.3     1  UNL1        0.0028
     14 C         141.3188  145.0335  163.9825 C.3     1  UNL1        0.0160
     15 C         139.8974  144.5714  163.8554 C.3     1  UNL1        0.0575
     16 C         138.9280  144.8104  164.9749 C.3     1  UNL1        0.0173
     17 N         139.4454  143.8703  162.6087 N.3     1  UNL1       -0.2738
     18 C         141.7458  140.2153  166.7208 C.3     1  UNL1        0.1556
     19 C         142.8876  140.6190  165.8358 C.ar    1  UNL1        0.0023
     20 C         143.2558  142.0668  165.7000 C.ar    1  UNL1       -0.0000
     21 C         144.3976  142.4704  164.8150 C.ar    1  UNL1        0.0294
     22 C         145.1713  141.4263  164.0659 C.ar    1  UNL1        0.1401
     23 F         146.3132  141.8300  163.1808 F       1  UNL1       -0.2042
     24 C         144.8032  139.9785  164.2016 C.ar    1  UNL1        0.0294
     25 C         143.6613  139.5749  165.0867 C.ar    1  UNL1       -0.0000
@<TRIPOS>BOND
     1    11    10    1
     2    11    12    1
     3    12    13    1
     4    13    14    1
     5    14    15    1
     6    15    16    1
     7    15    17    1
     8    17     9    1
     9     9     8    1
    10     8     6    1
    11     6     1    1
    12     1     2   ar
    13     2     3   ar
    14     3    18    1
    15    18    19    1
    16    19    20   ar
    17    20    21   ar
    18    21    22   ar
    19    22    23    1
    20    22    24   ar
    21    24    25   ar
    22     3     4   ar
    23     4     5   ar
    24    17    11    1
    25     5     1   ar
    26    25    19   ar
    27     6     7    1
@<TRIPOS>MOLECULE
*****
 25 27 0 0 0
SMALL
GASTEIGER

@<TRIPOS>ATOM
      1 C         138.3519  140.7810  165.0244 C.ar    1  UNL1        0.1709
      2 C         139.7540  141.2234  165.3218 C.ar    1  UNL1        0.1329
      3 N         140.3896  140.1888  166.2023 N.ar    1  UNL1       -0.2244
      4 N         139.3804  139.1069  166.4492 N.ar    1  UNL1       -0.0622
      5 N         138.1210  139.4729  165.7212 N.ar    1  UNL1       -0.1138
      6 N         137.3556  141.5175  164.1787 N.pl3   1  UNL1       -0.3142
      7 H         136.4684  141.7388  164.5436 H       1  UNL1        0.1483
      8 C         137.7111  141.9166  162.7772 C.3     1  UNL1        0.1058
      9 C         138.0418  143.3461  162.4655 C.3     1  UNL1        0.0935
     10 C         138.9207  144.7711  164.9550 C.3     1  UNL1        0.0173
     11 C         139.8942  144.5461  163.8362 C.3     1  UNL1        0.0575
     12 C         141.3072  145.0336  163.9622 C.3     1  UNL1        0.0160
     13 C         142.2807  144.8086  162.8435 C.3     1  UNL1        0.0028
     14 C         141.8414  144.0961  161.5988 C.3     1  UNL1        0.0160
     15 C         140.4284  143.6086  161.4728 C.3     1  UNL1        0.0575
     16 C         139.9890  142.8961  160.2281 C.3     1  UNL1        0.0173
     17 N         139.4549  143.8336  162.5915 N.3     1  UNL1       -0.2738
     18 C         141.7889  140.2289  166.7414 C.3     1  UNL1        0.1556
     19 C         142.9255  140.6287  165.8480 C.ar    1  UNL1        0.0023
     20 C         143.2810  142.0773  165.6893 C.ar    1  UNL1       -0.0000
     21 C         144.4177  142.4771  164.7959 C.ar    1  UNL1        0.0294
     22 C         145.1988  141.4283  164.0612 C.ar    1  UNL1        0.1401
     23 F         146.3356  141.8281  163.1678 F       1  UNL1       -0.2042
     24 C         144.8434  139.9797  164.2199 C.ar    1  UNL1        0.0294
     25 C         143.7067  139.5799  165.1133 C.ar    1  UNL1       -0.0000
@<TRIPOS>BOND
     1    11    10    1
     2    11    12    1
     3    12    13    1
     4    13    14    1
     5    14    15    1
     6    15    16    1
     7    15    17    1
     8    17     9    1
     9     9     8    1
    10     8     6    1
    11     6     1    1
    12     1     2   ar
    13     2     3   ar
    14     3    18    1
    15    18    19    1
    16    19    20   ar
    17    20    21   ar
    18    21    22   ar
    19    22    23    1
    20    22    24   ar
    21    24    25   ar
    22     3     4   ar
    23     4     5   ar
    24    17    11    1
    25     5     1   ar
    26    25    19   ar
    27     6     7    1
