@<TRIPOS>MOLECULE
*****
 40 44 0 0 0
SMALL
GASTEIGER

@<TRIPOS>ATOM
      1 N         141.9233  143.9498  159.6844 N.3     1  UNL1       -0.1520
      2 C         141.6973  144.4246  161.0891 C.3     1  UNL1        0.1173
      3 C         142.6145  143.9776  162.1886 C.3     1  UNL1        0.1126
      4 N         143.7577  143.0558  161.8834 N.am    1  UNL1       -0.2766
      5 C         144.6749  142.6089  162.9829 C.2     1  UNL1        0.2256
      6 O         145.8182  141.6870  162.6776 O.2     1  UNL1       -0.2749
      7 C         143.9837  142.5810  160.4786 C.3     1  UNL1        0.1126
      8 C         143.0665  143.0280  159.3791 C.3     1  UNL1        0.1173
      9 S         141.0061  144.3967  158.5849 S.O2    1  UNL1        0.0634
     10 O         140.0826  143.2551  158.8911 O.2     1  UNL1       -0.1528
     11 O         141.9295  145.5384  158.2786 O.2     1  UNL1       -0.1528
     12 C         139.2228  146.7075  155.8959 C.ar    1  UNL1        0.0225
     13 C         138.2544  145.7377  155.2863 C.ar    1  UNL1        0.0057
     14 C         138.2032  144.3209  155.7762 C.ar    1  UNL1        0.0728
     15 C         139.1205  143.8739  156.8757 C.ar    1  UNL1        0.0238
     16 C         140.0888  144.8437  157.4853 C.ar    1  UNL1        0.1222
     17 C         140.1400  146.2605  156.9955 C.ar    1  UNL1        0.0217
     18 O         138.4520  151.9165  155.5040 O.2     1  UNL1       -0.2720
     19 C         138.9197  150.5186  155.2259 C.2     1  UNL1        0.2574
     20 C         139.7858  150.0906  154.0784 C.3     1  UNL1        0.1503
     21 S         140.0048  148.6109  154.1898 S.3     1  UNL1       -0.0875
     22 C         139.2739  148.1244  155.4061 C.2     1  UNL1        0.0991
     23 N         138.6033  149.3034  156.0464 N.am    1  UNL1       -0.1722
     24 C         137.2348  143.3510  155.1666 C.3     1  UNL1        0.4186
     25 F         136.2665  142.3811  154.5571 F       1  UNL1       -0.1659
     26 F         137.6291  142.3194  156.1816 F       1  UNL1       -0.1659
     27 F         136.8406  144.3825  154.1516 F       1  UNL1       -0.1659
     28 C         144.4489  143.0837  164.3876 C.3     1  UNL1        0.0811
     29 C         144.8100  143.9912  165.5260 C.3     1  UNL1        0.0142
     30 C         143.6964  142.9986  165.6824 C.3     1  UNL1        0.0314
     31 C         142.6189  142.3763  166.5203 C.ar    1  UNL1       -0.0220
     32 C         142.8624  142.1062  167.9755 C.ar    1  UNL1       -0.0043
     33 C         141.7851  141.4840  168.8134 C.ar    1  UNL1        0.0035
     34 C         140.4641  141.1318  168.1960 C.ar    1  UNL1        0.0714
     35 C         140.2206  141.4019  166.7407 C.ar    1  UNL1        0.0035
     36 C         141.2980  142.0242  165.9029 C.ar    1  UNL1       -0.0043
     37 C         139.3867  140.5096  169.0338 C.3     1  UNL1        0.4186
     38 F         138.3093  139.8873  169.8717 F       1  UNL1       -0.1659
     39 F         139.6385  141.5232  170.1104 F       1  UNL1       -0.1659
     40 F         139.1349  139.4959  167.9573 F       1  UNL1       -0.1659
@<TRIPOS>BOND
     1    18    19    2
     2    19    20    1
     3    20    21    1
     4    21    22    1
     5    22    12    1
     6    12    13   ar
     7    13    14   ar
     8    14    24    1
     9    24    25    1
    10    24    26    1
    11    24    27    1
    12    14    15   ar
    13    15    16   ar
    14    16     9    1
    15     9    10    2
    16     9    11    2
    17     9     1    1
    18     1     2    1
    19     2     3    1
    20     3     4    1
    21     4     5   am
    22     5     6    2
    23    28     5    1
    24    28    29    1
    25    29    30    1
    26    30    31    1
    27    31    32   ar
    28    32    33   ar
    29    33    34   ar
    30    34    37    1
    31    37    38    1
    32    37    39    1
    33    37    40    1
    34    34    35   ar
    35    35    36   ar
    36     4     7    1
    37     7     8    1
    38    16    17   ar
    39    22    23    2
    40    23    19    1
    41    17    12   ar
    42     8     1    1
    43    30    28    1
    44    36    31   ar
@<TRIPOS>MOLECULE
*****
 40 44 0 0 0
SMALL
GASTEIGER

@<TRIPOS>ATOM
      1 N         141.4584  139.2220  162.3378 N.3     1  UNL1       -0.1520
      2 C         140.7804  138.2223  161.4484 C.3     1  UNL1        0.1173
      3 C         141.2447  138.0407  160.0337 C.3     1  UNL1        0.1126
      4 N         142.3869  138.8587  159.5083 N.am    1  UNL1       -0.2766
      5 C         142.8512  138.6771  158.0936 C.2     1  UNL1        0.2256
      6 O         143.9934  139.4952  157.5682 O.2     1  UNL1       -0.2749
      7 C         143.0648  139.8584  160.3977 C.3     1  UNL1        0.1126
      8 C         142.6006  140.0400  161.8124 C.3     1  UNL1        0.1173
      9 S         140.9941  139.4036  163.7525 S.O2    1  UNL1        0.0634
     10 O         141.2700  137.9553  164.0290 O.2     1  UNL1       -0.1528
     11 O         140.7181  140.8518  163.4761 O.2     1  UNL1       -0.1528
     12 C         140.8557  140.6232  167.5266 C.ar    1  UNL1        0.0225
     13 C         139.6013  139.9484  167.9967 C.ar    1  UNL1        0.0057
     14 C         138.8112  139.0920  167.0522 C.ar    1  UNL1        0.0728
     15 C         139.2754  138.9104  165.6374 C.ar    1  UNL1        0.0238
     16 C         140.5298  139.5852  165.1673 C.ar    1  UNL1        0.1222
     17 C         141.3199  140.4416  166.1118 C.ar    1  UNL1        0.0217
     18 O         144.8871  142.9560  170.0139 O.2     1  UNL1       -0.2720
     19 C         143.4989  142.5519  169.6144 C.2     1  UNL1        0.2574
     20 C         142.2246  143.0432  170.2349 C.3     1  UNL1        0.1503
     21 S         141.0794  142.3805  169.5283 S.3     1  UNL1       -0.0875
     22 C         141.6459  141.4796  168.4711 C.2     1  UNL1        0.0991
     23 N         143.1411  141.5856  168.5244 N.am    1  UNL1       -0.1722
     24 C         137.5567  138.4171  167.5223 C.3     1  UNL1        0.4186
     25 F         136.3023  137.7423  167.9924 F       1  UNL1       -0.1659
     26 F         137.5280  137.5963  166.2672 F       1  UNL1       -0.1659
     27 F         137.5854  139.2380  168.7774 F       1  UNL1       -0.1659
     28 C         142.1732  137.6774  157.2042 C.3     1  UNL1        0.0811
     29 C         141.0283  137.2980  156.3127 C.3     1  UNL1        0.0142
     30 C         142.1441  136.3254  156.5554 C.3     1  UNL1        0.0314
     31 C         142.7714  134.9831  156.3209 C.ar    1  UNL1       -0.0220
     32 C         143.5969  134.3428  157.3973 C.ar    1  UNL1       -0.0043
     33 C         144.2242  133.0006  157.1629 C.ar    1  UNL1        0.0035
     34 C         144.0262  132.2987  155.8520 C.ar    1  UNL1        0.0714
     35 C         143.2007  132.9391  154.7757 C.ar    1  UNL1        0.0035
     36 C         142.5733  134.2813  155.0101 C.ar    1  UNL1       -0.0043
     37 C         144.6535  130.9566  155.6176 C.3     1  UNL1        0.4186
     38 F         145.2809  129.6144  155.3832 F       1  UNL1       -0.1659
     39 F         144.0415  130.9096  154.2490 F       1  UNL1       -0.1659
     40 F         145.2655  131.0036  156.9862 F       1  UNL1       -0.1659
@<TRIPOS>BOND
     1    18    19    2
     2    19    20    1
     3    20    21    1
     4    21    22    1
     5    22    12    1
     6    12    13   ar
     7    13    14   ar
     8    14    24    1
     9    24    25    1
    10    24    26    1
    11    24    27    1
    12    14    15   ar
    13    15    16   ar
    14    16     9    1
    15     9    10    2
    16     9    11    2
    17     9     1    1
    18     1     2    1
    19     2     3    1
    20     3     4    1
    21     4     5   am
    22     5     6    2
    23    28     5    1
    24    28    29    1
    25    29    30    1
    26    30    31    1
    27    31    32   ar
    28    32    33   ar
    29    33    34   ar
    30    34    37    1
    31    37    38    1
    32    37    39    1
    33    37    40    1
    34    34    35   ar
    35    35    36   ar
    36     4     7    1
    37     7     8    1
    38    16    17   ar
    39    22    23    2
    40    23    19    1
    41    17    12   ar
    42     8     1    1
    43    30    28    1
    44    36    31   ar
@<TRIPOS>MOLECULE
*****
 40 44 0 0 0
SMALL
GASTEIGER

@<TRIPOS>ATOM
      1 N         142.0428  143.9193  159.7986 N.3     1  UNL1       -0.1520
      2 C         141.7916  144.3793  161.2040 C.3     1  UNL1        0.1173
      3 C         142.7025  143.9390  162.3115 C.3     1  UNL1        0.1126
      4 N         143.8647  143.0388  162.0134 N.am    1  UNL1       -0.2766
      5 C         144.7757  142.5986  163.1208 C.2     1  UNL1        0.2256
      6 O         145.9379  141.6984  162.8228 O.2     1  UNL1       -0.2749
      7 C         144.1160  142.5789  160.6080 C.3     1  UNL1        0.1126
      8 C         143.2051  143.0192  159.5006 C.3     1  UNL1        0.1173
      9 S         141.1319  144.3596  158.6912 S.O2    1  UNL1        0.0634
     10 O         142.0288  145.5307  158.4190 O.2     1  UNL1       -0.1528
     11 O         140.2350  143.1885  158.9634 O.2     1  UNL1       -0.1528
     12 C         138.5400  144.2217  155.6891 C.ar    1  UNL1        0.0225
     13 C         138.3991  145.6803  155.3690 C.ar    1  UNL1        0.0057
     14 C         139.1691  146.6987  156.1563 C.ar    1  UNL1        0.0728
     15 C         140.0800  146.2585  157.2637 C.ar    1  UNL1        0.0238
     16 C         140.2210  144.7998  157.5838 C.ar    1  UNL1        0.1222
     17 C         139.4509  143.7815  156.7965 C.ar    1  UNL1        0.0217
     18 O         134.5717  141.3517  153.7150 O.2     1  UNL1       -0.2720
     19 C         135.9459  141.8841  153.9944 C.2     1  UNL1        0.2574
     20 C         137.2242  141.3880  153.3859 C.3     1  UNL1        0.1503
     21 S         138.3514  142.2033  153.9467 S.3     1  UNL1       -0.0875
     22 C         137.7699  143.2032  154.9017 C.2     1  UNL1        0.0991
     23 N         136.2833  143.0059  154.9311 N.am    1  UNL1       -0.1722
     24 C         139.0282  148.1574  155.8362 C.3     1  UNL1        0.4186
     25 F         138.8873  149.6161  155.5162 F       1  UNL1       -0.1659
     26 F         138.6379  148.4317  157.2583 F       1  UNL1       -0.1659
     27 F         139.4185  147.8832  154.4141 F       1  UNL1       -0.1659
     28 C         144.5244  143.0585  164.5263 C.3     1  UNL1        0.0811
     29 C         144.8730  143.9451  165.6849 C.3     1  UNL1        0.0142
     30 C         143.7405  142.9685  165.8020 C.3     1  UNL1        0.0314
     31 C         142.6340  142.3528  166.6061 C.ar    1  UNL1       -0.0220
     32 C         141.3271  142.0179  165.9505 C.ar    1  UNL1       -0.0043
     33 C         140.2206  141.4022  166.7546 C.ar    1  UNL1        0.0035
     34 C         140.4211  141.1213  168.2144 C.ar    1  UNL1        0.0714
     35 C         141.7280  141.4561  168.8700 C.ar    1  UNL1        0.0035
     36 C         142.8345  142.0719  168.0659 C.ar    1  UNL1       -0.0043
     37 C         139.3146  140.5055  169.0185 C.3     1  UNL1        0.4186
     38 F         138.2082  139.8898  169.8225 F       1  UNL1       -0.1659
     39 F         139.0920  139.4916  167.9357 F       1  UNL1       -0.1659
     40 F         139.5373  141.5194  170.1012 F       1  UNL1       -0.1659
@<TRIPOS>BOND
     1    18    19    2
     2    19    20    1
     3    20    21    1
     4    21    22    1
     5    22    12    1
     6    12    13   ar
     7    13    14   ar
     8    14    24    1
     9    24    25    1
    10    24    26    1
    11    24    27    1
    12    14    15   ar
    13    15    16   ar
    14    16     9    1
    15     9    10    2
    16     9    11    2
    17     9     1    1
    18     1     2    1
    19     2     3    1
    20     3     4    1
    21     4     5   am
    22     5     6    2
    23    28     5    1
    24    28    29    1
    25    29    30    1
    26    30    31    1
    27    31    32   ar
    28    32    33   ar
    29    33    34   ar
    30    34    37    1
    31    37    38    1
    32    37    39    1
    33    37    40    1
    34    34    35   ar
    35    35    36   ar
    36     4     7    1
    37     7     8    1
    38    16    17   ar
    39    22    23    2
    40    23    19    1
    41    17    12   ar
    42     8     1    1
    43    30    28    1
    44    36    31   ar
@<TRIPOS>MOLECULE
*****
 40 44 0 0 0
SMALL
GASTEIGER

@<TRIPOS>ATOM
      1 N         138.5764  140.2678  160.1237 N.3     1  UNL1       -0.1520
      2 C         138.0422  140.7052  161.4553 C.3     1  UNL1        0.1173
      3 C         138.4437  139.9734  162.7016 C.3     1  UNL1        0.1126
      4 N         139.3794  138.8041  162.6162 N.am    1  UNL1       -0.2766
      5 C         139.7808  138.0722  163.8625 C.2     1  UNL1        0.2256
      6 O         140.7165  136.9030  163.7772 O.2     1  UNL1       -0.2749
      7 C         139.9136  138.3667  161.2846 C.3     1  UNL1        0.1126
      8 C         139.5121  139.0985  160.0383 C.3     1  UNL1        0.1173
      9 S         138.1750  140.9997  158.8774 S.O2    1  UNL1        0.0634
     10 O         138.2077  142.2974  159.6289 O.2     1  UNL1       -0.1528
     11 O         138.1422  139.7019  158.1259 O.2     1  UNL1       -0.1528
     12 C         138.1436  143.6714  155.9430 C.ar    1  UNL1        0.0225
     13 C         136.9706  143.1952  155.1385 C.ar    1  UNL1        0.0057
     14 C         136.1990  141.9871  155.5803 C.ar    1  UNL1        0.0728
     15 C         136.6005  141.2553  156.8266 C.ar    1  UNL1        0.0238
     16 C         137.7735  141.7315  157.6311 C.ar    1  UNL1        0.1222
     17 C         138.5450  142.9396  157.1893 C.ar    1  UNL1        0.0217
     18 O         139.3778  148.6248  154.5933 O.2     1  UNL1       -0.2720
     19 C         139.4825  147.1564  154.8808 C.2     1  UNL1        0.2574
     20 C         140.7226  146.3209  154.7620 C.3     1  UNL1        0.1503
     21 S         140.3720  144.9138  155.1454 S.3     1  UNL1       -0.0875
     22 C         138.9152  144.8796  155.5012 C.2     1  UNL1        0.0991
     23 N         138.3654  146.2656  155.3377 N.am    1  UNL1       -0.1722
     24 C         135.0260  141.5108  154.7758 C.3     1  UNL1        0.4186
     25 F         133.8530  141.0346  153.9713 F       1  UNL1       -0.1659
     26 F         135.6351  142.1006  153.5385 F       1  UNL1       -0.1659
     27 F         134.4168  140.9210  156.0132 F       1  UNL1       -0.1659
     28 C         139.2466  138.5096  165.1941 C.3     1  UNL1        0.0811
     29 C         138.1532  138.5030  166.2209 C.3     1  UNL1        0.0142
     30 C         139.4148  139.2739  166.4738 C.3     1  UNL1        0.0314
     31 C         140.2403  140.1604  167.3587 C.ar    1  UNL1       -0.0220
     32 C         141.6172  140.5741  166.9310 C.ar    1  UNL1       -0.0043
     33 C         142.4427  141.4605  167.8158 C.ar    1  UNL1        0.0035
     34 C         141.8913  141.9331  169.1283 C.ar    1  UNL1        0.0714
     35 C         140.5144  141.5194  169.5560 C.ar    1  UNL1        0.0035
     36 C         139.6889  140.6330  168.6711 C.ar    1  UNL1       -0.0043
     37 C         142.7168  142.8195  170.0131 C.3     1  UNL1        0.4186
     38 F         143.5423  143.7058  170.8978 F       1  UNL1       -0.1659
     39 F         143.8685  141.8659  169.8938 F       1  UNL1       -0.1659
     40 F         141.5652  143.7731  170.1323 F       1  UNL1       -0.1659
@<TRIPOS>BOND
     1    18    19    2
     2    19    20    1
     3    20    21    1
     4    21    22    1
     5    22    12    1
     6    12    13   ar
     7    13    14   ar
     8    14    24    1
     9    24    25    1
    10    24    26    1
    11    24    27    1
    12    14    15   ar
    13    15    16   ar
    14    16     9    1
    15     9    10    2
    16     9    11    2
    17     9     1    1
    18     1     2    1
    19     2     3    1
    20     3     4    1
    21     4     5   am
    22     5     6    2
    23    28     5    1
    24    28    29    1
    25    29    30    1
    26    30    31    1
    27    31    32   ar
    28    32    33   ar
    29    33    34   ar
    30    34    37    1
    31    37    38    1
    32    37    39    1
    33    37    40    1
    34    34    35   ar
    35    35    36   ar
    36     4     7    1
    37     7     8    1
    38    16    17   ar
    39    22    23    2
    40    23    19    1
    41    17    12   ar
    42     8     1    1
    43    30    28    1
    44    36    31   ar
@<TRIPOS>MOLECULE
*****
 40 44 0 0 0
SMALL
GASTEIGER

@<TRIPOS>ATOM
      1 N         142.0825  139.5202  161.1224 N.3     1  UNL1       -0.1520
      2 C         143.1796  138.7619  160.4361 C.3     1  UNL1        0.1173
      3 C         142.9037  138.0458  159.1472 C.3     1  UNL1        0.1126
      4 N         141.5307  138.0881  158.5448 N.am    1  UNL1       -0.2766
      5 C         141.2548  137.3720  157.2559 C.2     1  UNL1        0.2256
      6 O         139.8818  137.4142  156.6534 O.2     1  UNL1       -0.2749
      7 C         140.4336  138.8464  159.2311 C.3     1  UNL1        0.1126
      8 C         140.7095  139.5625  160.5200 C.3     1  UNL1        0.1173
      9 S         142.3584  140.2363  162.4113 S.O2    1  UNL1        0.0634
     10 O         143.8216  139.9424  162.2613 O.2     1  UNL1       -0.1528
     11 O         140.8951  140.5302  162.5612 O.2     1  UNL1       -0.1528
     12 C         142.6621  140.9792  166.2979 C.ar    1  UNL1        0.0225
     13 C         143.1860  142.3846  166.2778 C.ar    1  UNL1        0.0057
     14 C         143.4341  143.0738  164.9689 C.ar    1  UNL1        0.0728
     15 C         143.1582  142.3577  163.6800 C.ar    1  UNL1        0.0238
     16 C         142.6343  140.9524  163.7001 C.ar    1  UNL1        0.1222
     17 C         142.3862  140.2631  165.0090 C.ar    1  UNL1        0.0217
     18 O         143.0726  137.6556  170.3803 O.2     1  UNL1       -0.2720
     19 C         142.6027  138.7622  169.4833 C.2     1  UNL1        0.2574
     20 C         141.4617  139.6962  169.7589 C.3     1  UNL1        0.1503
     21 S         141.3451  140.6403  168.5992 S.3     1  UNL1       -0.0875
     22 C         142.4140  140.2899  167.6069 C.2     1  UNL1        0.0991
     23 N         143.1912  139.1292  168.1533 N.am    1  UNL1       -0.1722
     24 C         143.9580  144.4793  164.9487 C.3     1  UNL1        0.4186
     25 F         144.4820  145.8846  164.9286 F       1  UNL1       -0.1659
     26 F         145.0458  144.0874  165.9043 F       1  UNL1       -0.1659
     27 F         142.8703  144.8711  163.9931 F       1  UNL1       -0.1659
     28 C         142.3520  136.6136  156.5695 C.3     1  UNL1        0.0811
     29 C         143.5023  136.5791  155.6076 C.3     1  UNL1        0.0142
     30 C         143.1019  135.3345  156.3427 C.3     1  UNL1        0.0314
     31 C         143.3037  133.8773  156.6362 C.ar    1  UNL1       -0.0220
     32 C         144.4326  133.4400  157.5219 C.ar    1  UNL1       -0.0043
     33 C         144.6344  131.9829  157.8154 C.ar    1  UNL1        0.0035
     34 C         143.7073  130.9631  157.2232 C.ar    1  UNL1        0.0714
     35 C         142.5785  131.4004  156.3375 C.ar    1  UNL1        0.0035
     36 C         142.3767  132.8576  156.0440 C.ar    1  UNL1       -0.0043
     37 C         143.9092  129.5060  157.5167 C.3     1  UNL1        0.4186
     38 F         144.1110  128.0490  157.8102 F       1  UNL1       -0.1659
     39 F         142.9247  129.1531  156.4414 F       1  UNL1       -0.1659
     40 F         144.8936  129.8590  158.5920 F       1  UNL1       -0.1659
@<TRIPOS>BOND
     1    18    19    2
     2    19    20    1
     3    20    21    1
     4    21    22    1
     5    22    12    1
     6    12    13   ar
     7    13    14   ar
     8    14    24    1
     9    24    25    1
    10    24    26    1
    11    24    27    1
    12    14    15   ar
    13    15    16   ar
    14    16     9    1
    15     9    10    2
    16     9    11    2
    17     9     1    1
    18     1     2    1
    19     2     3    1
    20     3     4    1
    21     4     5   am
    22     5     6    2
    23    28     5    1
    24    28    29    1
    25    29    30    1
    26    30    31    1
    27    31    32   ar
    28    32    33   ar
    29    33    34   ar
    30    34    37    1
    31    37    38    1
    32    37    39    1
    33    37    40    1
    34    34    35   ar
    35    35    36   ar
    36     4     7    1
    37     7     8    1
    38    16    17   ar
    39    22    23    2
    40    23    19    1
    41    17    12   ar
    42     8     1    1
    43    30    28    1
    44    36    31   ar
@<TRIPOS>MOLECULE
*****
 40 44 0 0 0
SMALL
GASTEIGER

@<TRIPOS>ATOM
      1 N         140.6666  142.5271  162.5095 N.3     1  UNL1       -0.1520
      2 C         140.3142  141.8280  161.2300 C.3     1  UNL1        0.1173
      3 C         140.5896  142.4906  159.9128 C.3     1  UNL1        0.1126
      4 N         141.2174  143.8523  159.8750 N.am    1  UNL1       -0.2766
      5 C         141.4929  144.5149  158.5578 C.2     1  UNL1        0.2256
      6 O         142.1207  145.8766  158.5200 O.2     1  UNL1       -0.2749
      7 C         141.5698  144.5514  161.1544 C.3     1  UNL1        0.1126
      8 C         141.2944  143.8888  162.4717 C.3     1  UNL1        0.1173
      9 S         140.3912  141.8645  163.8267 S.O2    1  UNL1        0.0634
     10 O         140.9323  140.5725  163.2899 O.2     1  UNL1       -0.1528
     11 O         139.8500  143.1564  164.3634 O.2     1  UNL1       -0.1528
     12 C         140.4649  141.0750  167.7153 C.ar    1  UNL1        0.0225
     13 C         139.5649  139.8767  167.7784 C.ar    1  UNL1        0.0057
     14 C         138.9403  139.3410  166.5242 C.ar    1  UNL1        0.0728
     15 C         139.2157  140.0036  165.2070 C.ar    1  UNL1        0.0238
     16 C         140.1157  141.2019  165.1439 C.ar    1  UNL1        0.1222
     17 C         140.7403  141.7376  166.3980 C.ar    1  UNL1        0.0217
     18 O         143.4297  143.9240  171.0280 O.2     1  UNL1       -0.2720
     19 C         142.4523  142.9202  170.4921 C.2     1  UNL1        0.2574
     20 C         141.6491  141.9499  171.3067 C.3     1  UNL1        0.1503
     21 S         140.8069  141.1406  170.3656 S.3     1  UNL1       -0.0875
     22 C         141.0895  141.6107  168.9694 C.2     1  UNL1        0.0991
     23 N         142.1064  142.7106  169.0477 N.am    1  UNL1       -0.1722
     24 C         138.0402  138.1426  166.5873 C.3     1  UNL1        0.4186
     25 F         137.1402  136.9443  166.6503 F       1  UNL1       -0.1659
     26 F         138.7601  137.5404  165.4173 F       1  UNL1       -0.1659
     27 F         137.3203  138.7449  167.7573 F       1  UNL1       -0.1659
     28 C         141.1405  143.8158  157.2783 C.3     1  UNL1        0.0811
     29 C         141.5364  143.3090  155.9232 C.3     1  UNL1        0.0142
     30 C         140.1340  143.1116  156.4174 C.3     1  UNL1        0.0314
     31 C         138.7433  142.5909  156.2056 C.ar    1  UNL1       -0.0220
     32 C         137.8959  143.1440  155.0983 C.ar    1  UNL1       -0.0043
     33 C         136.5052  142.6234  154.8865 C.ar    1  UNL1        0.0035
     34 C         135.9618  141.5498  155.7821 C.ar    1  UNL1        0.0714
     35 C         136.8091  140.9967  156.8894 C.ar    1  UNL1        0.0035
     36 C         138.1999  141.5173  157.1012 C.ar    1  UNL1       -0.0043
     37 C         134.5711  141.0292  155.5703 C.3     1  UNL1        0.4186
     38 F         133.1804  140.5086  155.3585 F       1  UNL1       -0.1659
     39 F         134.6535  140.2812  156.8679 F       1  UNL1       -0.1659
     40 F         134.4887  141.7772  154.2728 F       1  UNL1       -0.1659
@<TRIPOS>BOND
     1    18    19    2
     2    19    20    1
     3    20    21    1
     4    21    22    1
     5    22    12    1
     6    12    13   ar
     7    13    14   ar
     8    14    24    1
     9    24    25    1
    10    24    26    1
    11    24    27    1
    12    14    15   ar
    13    15    16   ar
    14    16     9    1
    15     9    10    2
    16     9    11    2
    17     9     1    1
    18     1     2    1
    19     2     3    1
    20     3     4    1
    21     4     5   am
    22     5     6    2
    23    28     5    1
    24    28    29    1
    25    29    30    1
    26    30    31    1
    27    31    32   ar
    28    32    33   ar
    29    33    34   ar
    30    34    37    1
    31    37    38    1
    32    37    39    1
    33    37    40    1
    34    34    35   ar
    35    35    36   ar
    36     4     7    1
    37     7     8    1
    38    16    17   ar
    39    22    23    2
    40    23    19    1
    41    17    12   ar
    42     8     1    1
    43    30    28    1
    44    36    31   ar
@<TRIPOS>MOLECULE
*****
 40 44 0 0 0
SMALL
GASTEIGER

@<TRIPOS>ATOM
      1 N         141.0670  142.3657  162.2417 N.3     1  UNL1       -0.1520
      2 C         141.3982  141.4953  161.0658 C.3     1  UNL1        0.1173
      3 C         141.7803  142.1181  159.7557 C.3     1  UNL1        0.1126
      4 N         141.8312  143.6112  159.6216 N.am    1  UNL1       -0.2766
      5 C         142.2133  144.2339  158.3116 C.2     1  UNL1        0.2256
      6 O         142.2643  145.7270  158.1774 O.2     1  UNL1       -0.2749
      7 C         141.5001  144.4815  160.7975 C.3     1  UNL1        0.1126
      8 C         141.1180  143.8588  162.1076 C.3     1  UNL1        0.1173
      9 S         140.6850  141.7429  163.5517 S.O2    1  UNL1        0.0634
     10 O         140.0867  140.5765  162.8227 O.2     1  UNL1       -0.1528
     11 O         141.2832  142.9094  164.2807 O.2     1  UNL1       -0.1528
     12 C         140.3736  141.1206  167.4589 C.ar    1  UNL1        0.0225
     13 C         139.5387  139.8747  167.4818 C.ar    1  UNL1        0.0057
     14 C         139.0859  139.2515  166.1948 C.ar    1  UNL1        0.0728
     15 C         139.4680  139.8742  164.8847 C.ar    1  UNL1        0.0238
     16 C         140.3029  141.1202  164.8618 C.ar    1  UNL1        0.1222
     17 C         140.7557  141.7434  166.1488 C.ar    1  UNL1        0.0217
     18 O         143.1829  143.8446  171.0041 O.2     1  UNL1       -0.2720
     19 C         142.1177  142.9959  170.3755 C.2     1  UNL1        0.2574
     20 C         140.9287  142.4099  171.0776 C.3     1  UNL1        0.1503
     21 S         140.1307  141.6361  170.0705 S.3     1  UNL1       -0.0875
     22 C         140.8264  141.7439  168.7460 C.2     1  UNL1        0.0991
     23 N         142.0545  142.5843  168.9345 N.am    1  UNL1       -0.1722
     24 C         138.2510  138.0055  166.2177 C.3     1  UNL1        0.4186
     25 F         137.4161  136.7595  166.2406 F       1  UNL1       -0.1659
     26 F         139.1196  137.4039  165.1531 F       1  UNL1       -0.1659
     27 F         137.3823  138.6071  167.2824 F       1  UNL1       -0.1659
     28 C         142.5444  143.3636  157.1357 C.3     1  UNL1        0.0811
     29 C         142.1078  142.4234  156.0515 C.3     1  UNL1        0.0142
     30 C         143.5547  142.7962  156.1831 C.3     1  UNL1        0.0314
     31 C         144.9734  142.6838  155.7090 C.ar    1  UNL1       -0.0220
     32 C         146.0394  142.1919  156.6427 C.ar    1  UNL1       -0.0043
     33 C         147.4581  142.0795  156.1688 C.ar    1  UNL1        0.0035
     34 C         147.8108  142.4590  154.7610 C.ar    1  UNL1        0.0714
     35 C         146.7449  142.9508  153.8273 C.ar    1  UNL1        0.0035
     36 C         145.3261  143.0632  154.3014 C.ar    1  UNL1       -0.0043
     37 C         149.2295  142.3465  154.2871 C.3     1  UNL1        0.4186
     38 F         150.6482  142.2341  153.8131 F       1  UNL1       -0.1659
     39 F         149.5166  141.3603  155.3801 F       1  UNL1       -0.1659
     40 F         148.9425  143.3328  153.1940 F       1  UNL1       -0.1659
@<TRIPOS>BOND
     1    18    19    2
     2    19    20    1
     3    20    21    1
     4    21    22    1
     5    22    12    1
     6    12    13   ar
     7    13    14   ar
     8    14    24    1
     9    24    25    1
    10    24    26    1
    11    24    27    1
    12    14    15   ar
    13    15    16   ar
    14    16     9    1
    15     9    10    2
    16     9    11    2
    17     9     1    1
    18     1     2    1
    19     2     3    1
    20     3     4    1
    21     4     5   am
    22     5     6    2
    23    28     5    1
    24    28    29    1
    25    29    30    1
    26    30    31    1
    27    31    32   ar
    28    32    33   ar
    29    33    34   ar
    30    34    37    1
    31    37    38    1
    32    37    39    1
    33    37    40    1
    34    34    35   ar
    35    35    36   ar
    36     4     7    1
    37     7     8    1
    38    16    17   ar
    39    22    23    2
    40    23    19    1
    41    17    12   ar
    42     8     1    1
    43    30    28    1
    44    36    31   ar
@<TRIPOS>MOLECULE
*****
 40 44 0 0 0
SMALL
GASTEIGER

@<TRIPOS>ATOM
      1 N         138.4865  141.2088  160.5909 N.3     1  UNL1       -0.1520
      2 C         137.6639  140.2729  159.7559 C.3     1  UNL1        0.1173
      3 C         137.2940  140.6488  158.3517 C.3     1  UNL1        0.1126
      4 N         137.7467  141.9606  157.7824 N.am    1  UNL1       -0.2766
      5 C         137.3768  142.3364  156.3781 C.2     1  UNL1        0.2256
      6 O         137.8295  143.6482  155.8089 O.2     1  UNL1       -0.2749
      7 C         138.5694  142.8965  158.6173 C.3     1  UNL1        0.1126
      8 C         138.9393  142.5207  160.0216 C.3     1  UNL1        0.1173
      9 S         138.8565  140.8330  161.9951 S.O2    1  UNL1        0.0634
     10 O         137.5606  141.4043  162.4894 O.2     1  UNL1       -0.1528
     11 O         140.1523  140.2616  161.5008 O.2     1  UNL1       -0.1528
     12 C         140.7168  140.7945  165.5005 C.ar    1  UNL1        0.0225
     13 C         139.9662  139.7054  166.2078 C.ar    1  UNL1        0.0057
     14 C         138.8457  138.9921  165.5109 C.ar    1  UNL1        0.0728
     15 C         138.4758  139.3680  164.1067 C.ar    1  UNL1        0.0238
     16 C         139.2264  140.4571  163.3993 C.ar    1  UNL1        0.1222
     17 C         140.3469  141.1704  164.0962 C.ar    1  UNL1        0.0217
     18 O         143.8882  142.6853  169.2752 O.2     1  UNL1       -0.2720
     19 C         143.2950  142.3769  167.9324 C.2     1  UNL1        0.2574
     20 C         143.8283  142.8341  166.6070 C.3     1  UNL1        0.1503
     21 S         142.9274  142.2970  165.5347 S.3     1  UNL1       -0.0875
     22 C         141.8373  141.5078  166.1974 C.2     1  UNL1        0.0991
     23 N         142.0646  141.5572  167.6792 N.am    1  UNL1       -0.1722
     24 C         138.0951  137.9029  166.2183 C.3     1  UNL1        0.4186
     25 F         137.3445  136.8138  166.9255 F       1  UNL1       -0.1659
     26 F         138.6000  136.9055  165.2182 F       1  UNL1       -0.1659
     27 F         137.5901  138.9003  167.2183 F       1  UNL1       -0.1659
     28 C         136.5542  141.4005  155.5432 C.3     1  UNL1        0.0811
     29 C         136.3852  140.5731  154.3035 C.3     1  UNL1        0.0142
     30 C         135.2982  140.6067  155.3367 C.3     1  UNL1        0.0314
     31 C         133.9455  140.1679  155.8139 C.ar    1  UNL1       -0.0220
     32 C         132.7696  141.0904  155.6865 C.ar    1  UNL1       -0.0043
     33 C         131.4170  140.6516  156.1637 C.ar    1  UNL1        0.0035
     34 C         131.2402  139.2903  156.7684 C.ar    1  UNL1        0.0714
     35 C         132.4161  138.3678  156.8958 C.ar    1  UNL1        0.0035
     36 C         133.7688  138.8066  156.4186 C.ar    1  UNL1       -0.0043
     37 C         129.8876  138.8515  157.2456 C.3     1  UNL1        0.4186
     38 F         128.5349  138.4127  157.7228 F       1  UNL1       -0.1659
     39 F         129.8776  139.9696  158.2454 F       1  UNL1       -0.1659
     40 F         129.8975  137.7334  156.2458 F       1  UNL1       -0.1659
@<TRIPOS>BOND
     1    18    19    2
     2    19    20    1
     3    20    21    1
     4    21    22    1
     5    22    12    1
     6    12    13   ar
     7    13    14   ar
     8    14    24    1
     9    24    25    1
    10    24    26    1
    11    24    27    1
    12    14    15   ar
    13    15    16   ar
    14    16     9    1
    15     9    10    2
    16     9    11    2
    17     9     1    1
    18     1     2    1
    19     2     3    1
    20     3     4    1
    21     4     5   am
    22     5     6    2
    23    28     5    1
    24    28    29    1
    25    29    30    1
    26    30    31    1
    27    31    32   ar
    28    32    33   ar
    29    33    34   ar
    30    34    37    1
    31    37    38    1
    32    37    39    1
    33    37    40    1
    34    34    35   ar
    35    35    36   ar
    36     4     7    1
    37     7     8    1
    38    16    17   ar
    39    22    23    2
    40    23    19    1
    41    17    12   ar
    42     8     1    1
    43    30    28    1
    44    36    31   ar
@<TRIPOS>MOLECULE
*****
 40 44 0 0 0
SMALL
GASTEIGER

@<TRIPOS>ATOM
      1 N         140.7389  139.0431  159.9066 N.3     1  UNL1       -0.1520
      2 C         140.9735  138.4981  161.2842 C.3     1  UNL1        0.1173
      3 C         140.0970  138.9318  162.4217 C.3     1  UNL1        0.1126
      4 N         138.9860  139.9105  162.1814 N.am    1  UNL1       -0.2766
      5 C         138.1095  140.3443  163.3189 C.2     1  UNL1        0.2256
      6 O         136.9985  141.3229  163.0786 O.2     1  UNL1       -0.2749
      7 C         138.7514  140.4555  160.8038 C.3     1  UNL1        0.1126
      8 C         139.6279  140.0218  159.6664 C.3     1  UNL1        0.1173
      9 S         141.6153  138.6094  158.7692 S.O2    1  UNL1        0.0634
     10 O         140.4059  138.1399  158.0163 O.2     1  UNL1       -0.1528
     11 O         142.8248  139.0789  159.5221 O.2     1  UNL1       -0.1528
     12 C         143.3264  136.3213  156.0147 C.ar    1  UNL1        0.0225
     13 C         144.2447  137.3082  155.3569 C.ar    1  UNL1        0.0057
     14 C         144.2866  138.7288  155.8366 C.ar    1  UNL1        0.0728
     15 C         143.4101  139.1625  156.9740 C.ar    1  UNL1        0.0238
     16 C         142.4918  138.1757  157.6318 C.ar    1  UNL1        0.1222
     17 C         142.4499  136.7551  157.1521 C.ar    1  UNL1        0.0217
     18 O         144.2709  131.1467  155.5536 O.2     1  UNL1       -0.2720
     19 C         143.7186  132.5222  155.3231 C.2     1  UNL1        0.2574
     20 C         142.7212  132.9069  154.2708 C.3     1  UNL1        0.1503
     21 S         142.4529  134.3769  154.4018 S.3     1  UNL1       -0.0875
     22 C         143.2845  134.9007  155.5351 C.2     1  UNL1        0.0991
     23 N         144.0667  133.7544  156.1044 N.am    1  UNL1       -0.1722
     24 C         145.2049  139.7158  155.1788 C.3     1  UNL1        0.4186
     25 F         146.1233  140.7027  154.5211 F       1  UNL1       -0.1659
     26 F         145.5192  140.3153  156.5173 F       1  UNL1       -0.1659
     27 F         144.8907  139.1162  153.8403 F       1  UNL1       -0.1659
     28 C         138.3441  139.7993  164.6965 C.3     1  UNL1        0.0811
     29 C         138.1168  138.7347  165.7284 C.3     1  UNL1        0.0142
     30 C         138.9777  139.9200  166.0507 C.3     1  UNL1        0.0314
     31 C         139.8406  140.6740  167.0188 C.ar    1  UNL1       -0.0220
     32 C         139.8254  140.3141  168.4748 C.ar    1  UNL1       -0.0043
     33 C         140.6882  141.0680  169.4428 C.ar    1  UNL1        0.0035
     34 C         141.5662  142.1820  168.9548 C.ar    1  UNL1        0.0714
     35 C         141.5814  142.5420  167.4987 C.ar    1  UNL1        0.0035
     36 C         140.7185  141.7880  166.5307 C.ar    1  UNL1       -0.0043
     37 C         142.4290  142.9360  169.9228 C.3     1  UNL1        0.4186
     38 F         143.2918  143.6900  170.8907 F       1  UNL1       -0.1659
     39 F         143.4718  141.8618  169.8300 F       1  UNL1       -0.1659
     40 F         141.3862  144.0102  170.0156 F       1  UNL1       -0.1659
@<TRIPOS>BOND
     1    18    19    2
     2    19    20    1
     3    20    21    1
     4    21    22    1
     5    22    12    1
     6    12    13   ar
     7    13    14   ar
     8    14    24    1
     9    24    25    1
    10    24    26    1
    11    24    27    1
    12    14    15   ar
    13    15    16   ar
    14    16     9    1
    15     9    10    2
    16     9    11    2
    17     9     1    1
    18     1     2    1
    19     2     3    1
    20     3     4    1
    21     4     5   am
    22     5     6    2
    23    28     5    1
    24    28    29    1
    25    29    30    1
    26    30    31    1
    27    31    32   ar
    28    32    33   ar
    29    33    34   ar
    30    34    37    1
    31    37    38    1
    32    37    39    1
    33    37    40    1
    34    34    35   ar
    35    35    36   ar
    36     4     7    1
    37     7     8    1
    38    16    17   ar
    39    22    23    2
    40    23    19    1
    41    17    12   ar
    42     8     1    1
    43    30    28    1
    44    36    31   ar
