@<TRIPOS>MOLECULE
*****
 33 37 0 0 0
SMALL
GASTEIGER

@<TRIPOS>ATOM
      1 C         138.2431  141.5612  164.2645 C.ar    1  UNL1        0.0248
      2 C         138.8661  142.9164  164.4237 C.ar    1  UNL1       -0.0003
      3 C         139.7877  143.1876  165.5757 C.ar    1  UNL1       -0.0002
      4 C         140.0864  142.1035  166.5686 C.ar    1  UNL1        0.0001
      5 C         139.4635  140.7483  166.4094 C.ar    1  UNL1       -0.0002
      6 C         138.5419  140.4771  165.2574 C.ar    1  UNL1       -0.0003
      7 C         141.0080  142.3747  167.7205 C.ar    1  UNL1        0.0030
      8 C         140.4843  143.0375  168.9601 C.ar    1  UNL1        0.0001
      9 C         141.4060  143.3086  170.1120 C.ar    1  UNL1        0.0000
     10 C         142.8513  142.9170  170.0244 C.ar    1  UNL1        0.0001
     11 C         143.3750  142.2543  168.7849 C.ar    1  UNL1        0.0031
     12 C         142.4534  141.9831  167.6329 C.ar    1  UNL1        0.0371
     13 C         142.9771  141.3203  166.3934 C.ar    1  UNL1        0.1806
     14 N         143.5844  142.0157  165.2112 N.ar    1  UNL1       -0.1084
     15 N         143.9681  140.9710  164.2056 N.ar    1  UNL1       -0.0229
     16 N         143.5978  139.6299  164.7662 N.ar    1  UNL1       -0.0464
     17 N         142.9854  139.8458  166.1183 N.ar    1  UNL1       -0.2388
     18 H         142.6481  139.1431  166.7197 H       1  UNL1        0.1923
     19 C         137.3215  141.2900  163.1126 C.3     1  UNL1        0.2369
     20 C         138.0891  139.6467  161.1491 C.2     1  UNL1        0.3015
     21 N         138.6739  139.8303  159.7801 N.2     1  UNL1       -0.0666
     22 C         138.8314  141.3021  159.5369 C.3     1  UNL1        0.2640
     23 C         138.9890  142.7739  159.2939 C.3     1  UNL1        0.0606
     24 C         139.5738  142.9575  157.9248 C.3     1  UNL1        0.0051
     25 C         139.7777  141.5993  157.3218 C.3     1  UNL1        0.0051
     26 C         139.3189  140.5762  158.3181 C.3     1  UNL1        0.0606
     27 C         138.3440  142.0280  160.7558 C.2     1  UNL1        0.3577
     28 O         138.3197  143.5158  160.9450 O.2     1  UNL1       -0.2421
     29 N         137.8852  141.0049  161.7521 N.am    1  UNL1       -0.1369
     30 C         137.7650  138.3350  161.8008 C.3     1  UNL1        0.1172
     31 C         138.7079  137.7441  162.8066 C.3     1  UNL1        0.0127
     32 C         141.1295  137.1830  163.5620 C.3     1  UNL1        0.0000
     33 C         140.1876  137.7908  162.5653 C.3     1  UNL1        0.0006
@<TRIPOS>BOND
     1    32    33    1
     2    33    31    1
     3    31    30    1
     4    30    20    1
     5    20    21    2
     6    21    22    1
     7    22    23    1
     8    23    24    1
     9    24    25    1
    10    25    26    1
    11    22    27    1
    12    27    28    2
    13    27    29   am
    14    29    19    1
    15    19     1    1
    16     1     2   ar
    17     2     3   ar
    18     3     4   ar
    19     4     7    1
    20     7     8   ar
    21     8     9   ar
    22     9    10   ar
    23    10    11   ar
    24    11    12   ar
    25    12    13    1
    26    13    14   ar
    27    14    15   ar
    28    15    16   ar
    29    16    17   ar
    30     4     5   ar
    31     5     6   ar
    32    29    20    1
    33     6     1   ar
    34    26    22    1
    35    12     7   ar
    36    17    13   ar
    37    17    18    1
@<TRIPOS>MOLECULE
*****
 33 37 0 0 0
SMALL
GASTEIGER

@<TRIPOS>ATOM
      1 C         144.2074  140.3105  164.5134 C.ar    1  UNL1        0.0248
      2 C         143.8239  139.0095  165.1542 C.ar    1  UNL1       -0.0003
      3 C         142.9604  139.0034  166.3807 C.ar    1  UNL1       -0.0002
      4 C         142.4804  140.2982  166.9665 C.ar    1  UNL1        0.0001
      5 C         142.8639  141.5991  166.3258 C.ar    1  UNL1       -0.0002
      6 C         143.7274  141.6053  165.0993 C.ar    1  UNL1       -0.0003
      7 C         141.6169  140.2920  168.1930 C.ar    1  UNL1        0.0030
      8 C         142.2452  140.3671  169.5530 C.ar    1  UNL1        0.0001
      9 C         141.3818  140.3610  170.7795 C.ar    1  UNL1        0.0000
     10 C         139.8899  140.2797  170.6460 C.ar    1  UNL1        0.0001
     11 C         139.2616  140.2046  169.2860 C.ar    1  UNL1        0.0031
     12 C         140.1251  140.2107  168.0595 C.ar    1  UNL1        0.0371
     13 C         139.4967  140.1356  166.6995 C.ar    1  UNL1        0.1806
     14 N         139.0590  138.8839  165.9985 N.ar    1  UNL1       -0.1084
     15 N         138.4875  139.2737  164.6675 N.ar    1  UNL1       -0.0229
     16 N         138.5721  140.7664  164.5460 N.ar    1  UNL1       -0.0464
     17 N         139.1958  141.2991  165.8019 N.ar    1  UNL1       -0.2388
     18 H         139.3760  142.2460  166.0019 H       1  UNL1        0.1923
     19 C         145.0709  140.3166  163.2869 C.3     1  UNL1        0.2369
     20 C         144.1796  141.5854  161.1096 C.2     1  UNL1        0.3015
     21 N         143.5386  141.1599  159.8219 N.2     1  UNL1       -0.0666
     22 C         143.4036  139.6661  159.8428 C.3     1  UNL1        0.2640
     23 C         143.2686  138.1723  159.8636 C.3     1  UNL1        0.0606
     24 C         142.6276  137.7468  158.5760 C.3     1  UNL1        0.0051
     25 C         142.3664  138.9776  157.7593 C.3     1  UNL1        0.0051
     26 C         142.8460  140.1638  158.5422 C.3     1  UNL1        0.0606
     27 C         143.9612  139.1684  161.1434 C.2     1  UNL1        0.3577
     28 O         144.0275  137.7361  161.5836 O.2     1  UNL1       -0.2421
     29 N         144.4408  140.3546  161.9263 N.am    1  UNL1       -0.1369
     30 C         144.5027  142.9943  161.5103 C.3     1  UNL1        0.1172
     31 C         143.4068  143.9187  161.9514 C.3     1  UNL1        0.0127
     32 C         142.4084  145.2917  163.9181 C.3     1  UNL1        0.0000
     33 C         143.5998  144.7886  163.1581 C.3     1  UNL1        0.0006
@<TRIPOS>BOND
     1    32    33    1
     2    33    31    1
     3    31    30    1
     4    30    20    1
     5    20    21    2
     6    21    22    1
     7    22    23    1
     8    23    24    1
     9    24    25    1
    10    25    26    1
    11    22    27    1
    12    27    28    2
    13    27    29   am
    14    29    19    1
    15    19     1    1
    16     1     2   ar
    17     2     3   ar
    18     3     4   ar
    19     4     7    1
    20     7     8   ar
    21     8     9   ar
    22     9    10   ar
    23    10    11   ar
    24    11    12   ar
    25    12    13    1
    26    13    14   ar
    27    14    15   ar
    28    15    16   ar
    29    16    17   ar
    30     4     5   ar
    31     5     6   ar
    32    29    20    1
    33     6     1   ar
    34    26    22    1
    35    12     7   ar
    36    17    13   ar
    37    17    18    1
@<TRIPOS>MOLECULE
*****
 33 37 0 0 0
SMALL
GASTEIGER

@<TRIPOS>ATOM
      1 C         141.6649  144.1597  163.9042 C.ar    1  UNL1        0.0248
      2 C         140.2634  144.3503  164.4038 C.ar    1  UNL1       -0.0003
      3 C         139.8078  143.6449  165.6467 C.ar    1  UNL1       -0.0002
      4 C         140.7536  142.7487  166.3900 C.ar    1  UNL1        0.0001
      5 C         142.1550  142.5581  165.8904 C.ar    1  UNL1       -0.0002
      6 C         142.6107  143.2635  164.6476 C.ar    1  UNL1       -0.0003
      7 C         140.2979  142.0433  167.6329 C.ar    1  UNL1        0.0030
      8 C         140.4420  142.7095  168.9690 C.ar    1  UNL1        0.0001
      9 C         139.9864  142.0041  170.2119 C.ar    1  UNL1        0.0000
     10 C         139.3866  140.6324  170.1185 C.ar    1  UNL1        0.0001
     11 C         139.2425  139.9662  168.7824 C.ar    1  UNL1        0.0031
     12 C         139.6981  140.6716  167.5395 C.ar    1  UNL1        0.0371
     13 C         139.5540  140.0054  166.2033 C.ar    1  UNL1        0.1806
     14 N         138.3522  140.0750  165.3085 N.ar    1  UNL1       -0.1084
     15 N         138.6418  139.2652  164.0795 N.ar    1  UNL1       -0.0229
     16 N         140.0226  138.6951  164.2149 N.ar    1  UNL1       -0.0464
     17 N         140.5864  139.1525  165.5274 N.ar    1  UNL1       -0.2388
     18 H         141.4775  138.9318  165.8829 H       1  UNL1        0.1923
     19 C         142.1206  144.8651  162.6614 C.3     1  UNL1        0.2369
     20 C         143.1475  143.3199  160.7371 C.2     1  UNL1        0.3015
     21 N         142.6641  142.8179  159.4089 N.2     1  UNL1       -0.0666
     22 C         141.2797  143.3516  159.1875 C.3     1  UNL1        0.2640
     23 C         139.8955  143.8853  158.9662 C.3     1  UNL1        0.0606
     24 C         139.4120  143.3833  157.6380 C.3     1  UNL1        0.0051
     25 C         140.4975  142.5393  157.0384 C.3     1  UNL1        0.0051
     26 C         141.6518  142.5198  157.9960 C.3     1  UNL1        0.0606
     27 C         140.9077  144.1834  160.3791 C.2     1  UNL1        0.3577
     28 O         139.6093  144.9077  160.5779 O.2     1  UNL1       -0.2421
     29 N         142.0620  144.1639  161.3367 N.am    1  UNL1       -0.1369
     30 C         144.4821  143.0291  161.3570 C.3     1  UNL1        0.1172
     31 C         144.7571  141.6771  161.9456 C.3     1  UNL1        0.0127
     32 C         145.1936  140.4596  164.1988 C.3     1  UNL1        0.0000
     33 C         145.5182  141.5603  163.2329 C.3     1  UNL1        0.0006
@<TRIPOS>BOND
     1    32    33    1
     2    33    31    1
     3    31    30    1
     4    30    20    1
     5    20    21    2
     6    21    22    1
     7    22    23    1
     8    23    24    1
     9    24    25    1
    10    25    26    1
    11    22    27    1
    12    27    28    2
    13    27    29   am
    14    29    19    1
    15    19     1    1
    16     1     2   ar
    17     2     3   ar
    18     3     4   ar
    19     4     7    1
    20     7     8   ar
    21     8     9   ar
    22     9    10   ar
    23    10    11   ar
    24    11    12   ar
    25    12    13    1
    26    13    14   ar
    27    14    15   ar
    28    15    16   ar
    29    16    17   ar
    30     4     5   ar
    31     5     6   ar
    32    29    20    1
    33     6     1   ar
    34    26    22    1
    35    12     7   ar
    36    17    13   ar
    37    17    18    1
@<TRIPOS>MOLECULE
*****
 33 37 0 0 0
SMALL
GASTEIGER

@<TRIPOS>ATOM
      1 C         138.1855  141.5576  164.3713 C.ar    1  UNL1        0.0248
      2 C         138.0684  140.1380  164.8413 C.ar    1  UNL1       -0.0003
      3 C         138.8974  139.6595  165.9962 C.ar    1  UNL1       -0.0002
      4 C         139.8435  140.6006  166.6812 C.ar    1  UNL1        0.0001
      5 C         139.9606  142.0203  166.2112 C.ar    1  UNL1       -0.0002
      6 C         139.1316  142.4988  165.0563 C.ar    1  UNL1       -0.0003
      7 C         140.6725  140.1221  167.8361 C.ar    1  UNL1        0.0030
      8 C         140.1376  140.2187  169.2342 C.ar    1  UNL1        0.0001
      9 C         140.9666  139.7402  170.3890 C.ar    1  UNL1        0.0000
     10 C         142.3304  139.1651  170.1459 C.ar    1  UNL1        0.0001
     11 C         142.8653  139.0685  168.7478 C.ar    1  UNL1        0.0031
     12 C         142.0363  139.5470  167.5929 C.ar    1  UNL1        0.0371
     13 C         142.5712  139.4505  166.1948 C.ar    1  UNL1        0.1806
     14 N         143.4297  140.4701  165.5068 N.ar    1  UNL1       -0.1084
     15 N         143.7306  139.9672  164.1261 N.ar    1  UNL1       -0.0229
     16 N         143.0581  138.6366  163.9607 N.ar    1  UNL1       -0.0464
     17 N         142.3415  138.3173  165.2392 N.ar    1  UNL1       -0.2388
     18 H         141.8133  137.5063  165.4196 H       1  UNL1        0.1923
     19 C         137.3565  142.0362  163.2164 C.3     1  UNL1        0.2369
     20 C         138.7005  143.6402  161.5535 C.2     1  UNL1        0.3015
     21 N         139.2062  143.5249  160.1460 N.2     1  UNL1       -0.0666
     22 C         138.8289  142.1687  159.6276 C.3     1  UNL1        0.2640
     23 C         138.4517  140.8126  159.1093 C.3     1  UNL1        0.0606
     24 C         138.9573  140.6972  157.7018 C.3     1  UNL1        0.0051
     25 C         139.6471  141.9820  157.3503 C.3     1  UNL1        0.0051
     26 C         139.5677  142.8914  158.5405 C.3     1  UNL1        0.0606
     27 C         138.0901  141.4460  160.7148 C.2     1  UNL1        0.3577
     28 O         137.5292  140.0576  160.6271 O.2     1  UNL1       -0.2421
     29 N         138.0107  142.3555  161.9050 N.am    1  UNL1       -0.1369
     30 C         138.8571  144.8313  162.4517 C.3     1  UNL1        0.1172
     31 C         140.1138  145.6487  162.4012 C.3     1  UNL1        0.0127
     32 C         142.1998  145.2241  163.8906 C.3     1  UNL1        0.0000
     33 C         141.4450  144.9914  162.6154 C.3     1  UNL1        0.0006
@<TRIPOS>BOND
     1    32    33    1
     2    33    31    1
     3    31    30    1
     4    30    20    1
     5    20    21    2
     6    21    22    1
     7    22    23    1
     8    23    24    1
     9    24    25    1
    10    25    26    1
    11    22    27    1
    12    27    28    2
    13    27    29   am
    14    29    19    1
    15    19     1    1
    16     1     2   ar
    17     2     3   ar
    18     3     4   ar
    19     4     7    1
    20     7     8   ar
    21     8     9   ar
    22     9    10   ar
    23    10    11   ar
    24    11    12   ar
    25    12    13    1
    26    13    14   ar
    27    14    15   ar
    28    15    16   ar
    29    16    17   ar
    30     4     5   ar
    31     5     6   ar
    32    29    20    1
    33     6     1   ar
    34    26    22    1
    35    12     7   ar
    36    17    13   ar
    37    17    18    1
@<TRIPOS>MOLECULE
*****
 33 37 0 0 0
SMALL
GASTEIGER

@<TRIPOS>ATOM
      1 C         139.8413  138.4090  163.9507 C.ar    1  UNL1        0.0248
      2 C         138.6160  139.1538  164.3911 C.ar    1  UNL1       -0.0003
      3 C         138.6435  139.9630  165.6539 C.ar    1  UNL1       -0.0002
      4 C         139.8964  140.0273  166.4763 C.ar    1  UNL1        0.0001
      5 C         141.1217  139.2825  166.0359 C.ar    1  UNL1       -0.0002
      6 C         141.0942  138.4734  164.7732 C.ar    1  UNL1       -0.0003
      7 C         139.9240  140.8365  167.7390 C.ar    1  UNL1        0.0030
      8 C         139.4558  140.2301  169.0287 C.ar    1  UNL1        0.0001
      9 C         139.4834  141.0392  170.2914 C.ar    1  UNL1        0.0000
     10 C         139.9790  142.4547  170.2645 C.ar    1  UNL1        0.0001
     11 C         140.4471  143.0611  168.9748 C.ar    1  UNL1        0.0031
     12 C         140.4196  142.2519  167.7121 C.ar    1  UNL1        0.0371
     13 C         140.8877  142.8583  166.4224 C.ar    1  UNL1        0.1806
     14 N         140.0662  143.7066  165.4976 N.ar    1  UNL1       -0.1084
     15 N         140.9302  144.0954  164.3348 N.ar    1  UNL1       -0.0229
     16 N         142.2859  143.4873  164.5409 N.ar    1  UNL1       -0.0464
     17 N         142.2596  142.7228  165.8312 N.ar    1  UNL1       -0.2388
     18 H         143.0108  142.2202  166.2214 H       1  UNL1        0.1923
     19 C         139.8138  137.5999  162.6880 C.3     1  UNL1        0.2369
     20 C         141.3980  138.2909  160.6490 C.2     1  UNL1        0.3015
     21 N         141.2107  139.0553  159.3720 N.2     1  UNL1       -0.0666
     22 C         139.7789  139.4971  159.3020 C.3     1  UNL1        0.2640
     23 C         138.3471  139.9388  159.2321 C.3     1  UNL1        0.0606
     24 C         138.1598  140.7033  157.9552 C.3     1  UNL1        0.0051
     25 C         139.4758  140.7340  157.2359 C.3     1  UNL1        0.0051
     26 C         140.4764  139.9885  158.0684 C.3     1  UNL1        0.0606
     27 C         139.0814  139.0056  160.5357 C.2     1  UNL1        0.3577
     28 O         137.6368  139.2217  160.8770 O.2     1  UNL1       -0.2421
     29 N         140.0820  138.2601  161.3682 N.am    1  UNL1       -0.1369
     30 C         142.6768  137.6667  161.1234 C.3     1  UNL1        0.1172
     31 C         143.8671  138.5295  161.4216 C.3     1  UNL1        0.0127
     32 C         144.5630  139.4025  163.7675 C.3     1  UNL1        0.0000
     33 C         143.7864  139.5735  162.4957 C.3     1  UNL1        0.0006
@<TRIPOS>BOND
     1    32    33    1
     2    33    31    1
     3    31    30    1
     4    30    20    1
     5    20    21    2
     6    21    22    1
     7    22    23    1
     8    23    24    1
     9    24    25    1
    10    25    26    1
    11    22    27    1
    12    27    28    2
    13    27    29   am
    14    29    19    1
    15    19     1    1
    16     1     2   ar
    17     2     3   ar
    18     3     4   ar
    19     4     7    1
    20     7     8   ar
    21     8     9   ar
    22     9    10   ar
    23    10    11   ar
    24    11    12   ar
    25    12    13    1
    26    13    14   ar
    27    14    15   ar
    28    15    16   ar
    29    16    17   ar
    30     4     5   ar
    31     5     6   ar
    32    29    20    1
    33     6     1   ar
    34    26    22    1
    35    12     7   ar
    36    17    13   ar
    37    17    18    1
@<TRIPOS>MOLECULE
*****
 33 37 0 0 0
SMALL
GASTEIGER

@<TRIPOS>ATOM
      1 C         140.9720  144.0535  164.3203 C.ar    1  UNL1        0.0248
      2 C         142.3712  143.5270  164.4438 C.ar    1  UNL1       -0.0003
      3 C         142.7558  142.6899  165.6275 C.ar    1  UNL1       -0.0002
      4 C         141.7413  142.3792  166.6878 C.ar    1  UNL1        0.0001
      5 C         140.3421  142.9056  166.5644 C.ar    1  UNL1       -0.0002
      6 C         139.9575  143.7427  165.3807 C.ar    1  UNL1       -0.0003
      7 C         142.1259  141.5420  167.8715 C.ar    1  UNL1        0.0030
      8 C         142.4390  142.1976  169.1839 C.ar    1  UNL1        0.0001
      9 C         142.8236  141.3605  170.3676 C.ar    1  UNL1        0.0000
     10 C         142.8952  139.8677  170.2390 C.ar    1  UNL1        0.0001
     11 C         142.5821  139.2121  168.9267 C.ar    1  UNL1        0.0031
     12 C         142.1975  140.0493  167.7429 C.ar    1  UNL1        0.0371
     13 C         141.8845  139.3936  166.4306 C.ar    1  UNL1        0.1806
     14 N         142.8870  138.9180  165.4213 N.ar    1  UNL1       -0.1084
     15 N         142.1361  138.3290  164.2641 N.ar    1  UNL1       -0.0229
     16 N         140.6694  138.4406  164.5582 N.ar    1  UNL1       -0.0464
     17 N         140.5139  139.0986  165.8972 N.ar    1  UNL1       -0.2388
     18 H         139.6619  139.3012  166.3469 H       1  UNL1        0.1923
     19 C         140.5874  144.8906  163.1366 C.3     1  UNL1        0.2369
     20 C         138.7073  143.5598  161.7804 C.2     1  UNL1        0.3015
     21 N         138.5727  143.0510  160.3758 N.2     1  UNL1       -0.0666
     22 C         139.8222  143.4142  159.6295 C.3     1  UNL1        0.2640
     23 C         141.0716  143.7775  158.8832 C.3     1  UNL1        0.0606
     24 C         140.9370  143.2686  157.4786 C.3     1  UNL1        0.0051
     25 C         139.6044  142.5909  157.3567 C.3     1  UNL1        0.0051
     26 C         138.9154  142.6809  158.6861 C.3     1  UNL1        0.0606
     27 C         140.7289  144.1476  160.5729 C.2     1  UNL1        0.3577
     28 O         142.0864  144.6949  160.2445 O.2     1  UNL1       -0.2421
     29 N         140.0399  144.2376  161.9022 N.am    1  UNL1       -0.1369
     30 C         137.6882  143.4162  162.8717 C.3     1  UNL1        0.1172
     31 C         137.2843  142.0516  163.3458 C.3     1  UNL1        0.0127
     32 C         138.0224  139.7214  162.4653 C.3     1  UNL1        0.0000
     33 C         138.2754  140.9259  163.3228 C.3     1  UNL1        0.0006
@<TRIPOS>BOND
     1    32    33    1
     2    33    31    1
     3    31    30    1
     4    30    20    1
     5    20    21    2
     6    21    22    1
     7    22    23    1
     8    23    24    1
     9    24    25    1
    10    25    26    1
    11    22    27    1
    12    27    28    2
    13    27    29   am
    14    29    19    1
    15    19     1    1
    16     1     2   ar
    17     2     3   ar
    18     3     4   ar
    19     4     7    1
    20     7     8   ar
    21     8     9   ar
    22     9    10   ar
    23    10    11   ar
    24    11    12   ar
    25    12    13    1
    26    13    14   ar
    27    14    15   ar
    28    15    16   ar
    29    16    17   ar
    30     4     5   ar
    31     5     6   ar
    32    29    20    1
    33     6     1   ar
    34    26    22    1
    35    12     7   ar
    36    17    13   ar
    37    17    18    1
@<TRIPOS>MOLECULE
*****
 33 37 0 0 0
SMALL
GASTEIGER

@<TRIPOS>ATOM
      1 C         138.2739  141.7658  164.2153 C.ar    1  UNL1        0.0248
      2 C         138.0669  140.3657  164.7124 C.ar    1  UNL1       -0.0003
      3 C         138.8053  139.8838  165.9258 C.ar    1  UNL1       -0.0002
      4 C         139.7508  140.8020  166.6423 C.ar    1  UNL1        0.0001
      5 C         139.9578  142.2020  166.1452 C.ar    1  UNL1       -0.0002
      6 C         139.2194  142.6839  164.9317 C.ar    1  UNL1       -0.0003
      7 C         140.4892  140.3201  167.8557 C.ar    1  UNL1        0.0030
      8 C         139.8573  140.4315  169.2116 C.ar    1  UNL1        0.0001
      9 C         140.5957  139.9496  170.4251 C.ar    1  UNL1        0.0000
     10 C         141.9660  139.3563  170.2826 C.ar    1  UNL1        0.0001
     11 C         142.5978  139.2448  168.9268 C.ar    1  UNL1        0.0031
     12 C         141.8594  139.7267  167.7133 C.ar    1  UNL1        0.0371
     13 C         142.4913  139.6153  166.3574 C.ar    1  UNL1        0.1806
     14 N         142.4516  138.4123  165.4624 N.ar    1  UNL1       -0.1084
     15 N         143.2095  138.7407  164.2104 N.ar    1  UNL1       -0.0229
     16 N         143.7177  140.1468  164.3316 N.ar    1  UNL1       -0.0464
     17 N         143.2739  140.6873  165.6586 N.ar    1  UNL1       -0.2388
     18 H         143.4629  141.5876  166.0093 H       1  UNL1        0.1923
     19 C         137.5355  142.2477  163.0018 C.3     1  UNL1        0.2369
     20 C         138.2764  141.3885  160.5815 C.2     1  UNL1        0.3015
     21 N         139.1156  141.9447  159.4696 N.2     1  UNL1       -0.0666
     22 C         139.6139  143.2940  159.8953 C.3     1  UNL1        0.2640
     23 C         140.1122  144.6433  160.3210 C.3     1  UNL1        0.0606
     24 C         140.9514  145.1995  159.2091 C.3     1  UNL1        0.0051
     25 C         140.9718  144.1940  158.0962 C.3     1  UNL1        0.0051
     26 C         140.1452  143.0163  158.5203 C.3     1  UNL1        0.0606
     27 C         139.0826  143.5717  161.2703 C.2     1  UNL1        0.3577
     28 O         139.3338  144.8097  162.0792 O.2     1  UNL1       -0.2421
     29 N         138.2560  142.3940  161.6944 N.am    1  UNL1       -0.1369
     30 C         137.5799  140.0600  160.5807 C.3     1  UNL1        0.1172
     31 C         138.1138  138.9328  161.4139 C.3     1  UNL1        0.0127
     32 C         140.5422  138.5173  160.5892 C.3     1  UNL1        0.0000
     33 C         139.5840  138.8404  161.6970 C.3     1  UNL1        0.0006
@<TRIPOS>BOND
     1    32    33    1
     2    33    31    1
     3    31    30    1
     4    30    20    1
     5    20    21    2
     6    21    22    1
     7    22    23    1
     8    23    24    1
     9    24    25    1
    10    25    26    1
    11    22    27    1
    12    27    28    2
    13    27    29   am
    14    29    19    1
    15    19     1    1
    16     1     2   ar
    17     2     3   ar
    18     3     4   ar
    19     4     7    1
    20     7     8   ar
    21     8     9   ar
    22     9    10   ar
    23    10    11   ar
    24    11    12   ar
    25    12    13    1
    26    13    14   ar
    27    14    15   ar
    28    15    16   ar
    29    16    17   ar
    30     4     5   ar
    31     5     6   ar
    32    29    20    1
    33     6     1   ar
    34    26    22    1
    35    12     7   ar
    36    17    13   ar
    37    17    18    1
@<TRIPOS>MOLECULE
*****
 33 37 0 0 0
SMALL
GASTEIGER

@<TRIPOS>ATOM
      1 C         142.3957  140.7952  164.1039 C.ar    1  UNL1        0.0248
      2 C         141.5531  140.3239  162.9558 C.ar    1  UNL1       -0.0003
      3 C         141.5267  141.1042  161.6750 C.ar    1  UNL1       -0.0002
      4 C         142.3428  142.3558  161.5422 C.ar    1  UNL1        0.0001
      5 C         143.1854  142.8270  162.6903 C.ar    1  UNL1       -0.0002
      6 C         143.2118  142.0468  163.9711 C.ar    1  UNL1       -0.0003
      7 C         142.3164  143.1360  160.2614 C.ar    1  UNL1        0.0030
      8 C         143.3372  142.8644  159.1965 C.ar    1  UNL1        0.0001
      9 C         143.3108  143.6446  157.9157 C.ar    1  UNL1        0.0000
     10 C         142.2635  144.6966  157.6998 C.ar    1  UNL1        0.0001
     11 C         141.2426  144.9682  158.7648 C.ar    1  UNL1        0.0031
     12 C         141.2691  144.1879  160.0456 C.ar    1  UNL1        0.0371
     13 C         140.2482  144.4596  161.1105 C.ar    1  UNL1        0.1806
     14 N         140.4578  145.2910  162.3413 N.ar    1  UNL1       -0.1084
     15 N         139.1777  145.2928  163.1231 N.ar    1  UNL1       -0.0229
     16 N         138.1769  144.4625  162.3755 N.ar    1  UNL1       -0.0464
     17 N         138.8385  143.9476  161.1317 N.ar    1  UNL1       -0.2388
     18 H         138.4208  143.3742  160.4490 H       1  UNL1        0.1923
     19 C         142.4221  140.0149  165.3846 C.3     1  UNL1        0.2369
     20 C         140.2297  139.9618  166.9128 C.2     1  UNL1        0.3015
     21 N         139.7814  140.6817  168.1500 N.2     1  UNL1       -0.0666
     22 C         140.8715  141.6291  168.5556 C.3     1  UNL1        0.2640
     23 C         141.9615  142.5764  168.9612 C.3     1  UNL1        0.0606
     24 C         141.5132  143.2963  170.1984 C.3     1  UNL1        0.0051
     25 C         140.1462  142.7940  170.5575 C.3     1  UNL1        0.0051
     26 C         139.7496  141.7636  169.5422 C.3     1  UNL1        0.0606
     27 C         141.9933  141.4945  167.5690 C.2     1  UNL1        0.3577
     28 O         143.2851  142.2566  167.5935 O.2     1  UNL1       -0.2421
     29 N         141.5967  140.4641  166.5537 N.am    1  UNL1       -0.1369
     30 C         139.4481  138.9220  166.1657 C.3     1  UNL1        0.1172
     31 C         138.1567  139.2907  165.4976 C.3     1  UNL1        0.0127
     32 C         138.1574  141.7125  164.5570 C.3     1  UNL1        0.0000
     33 C         138.1589  140.2301  164.3281 C.3     1  UNL1        0.0006
@<TRIPOS>BOND
     1    32    33    1
     2    33    31    1
     3    31    30    1
     4    30    20    1
     5    20    21    2
     6    21    22    1
     7    22    23    1
     8    23    24    1
     9    24    25    1
    10    25    26    1
    11    22    27    1
    12    27    28    2
    13    27    29   am
    14    29    19    1
    15    19     1    1
    16     1     2   ar
    17     2     3   ar
    18     3     4   ar
    19     4     7    1
    20     7     8   ar
    21     8     9   ar
    22     9    10   ar
    23    10    11   ar
    24    11    12   ar
    25    12    13    1
    26    13    14   ar
    27    14    15   ar
    28    15    16   ar
    29    16    17   ar
    30     4     5   ar
    31     5     6   ar
    32    29    20    1
    33     6     1   ar
    34    26    22    1
    35    12     7   ar
    36    17    13   ar
    37    17    18    1
@<TRIPOS>MOLECULE
*****
 33 37 0 0 0
SMALL
GASTEIGER

@<TRIPOS>ATOM
      1 C         142.6449  140.3187  161.6773 C.ar    1  UNL1        0.0248
      2 C         141.4012  140.4037  160.8430 C.ar    1  UNL1       -0.0003
      3 C         141.3364  141.3594  159.6887 C.ar    1  UNL1       -0.0002
      4 C         142.5153  142.2301  159.3686 C.ar    1  UNL1        0.0001
      5 C         143.7589  142.1450  160.2030 C.ar    1  UNL1       -0.0002
      6 C         143.8237  141.1893  161.3573 C.ar    1  UNL1       -0.0003
      7 C         142.4505  143.1857  158.2143 C.ar    1  UNL1        0.0030
      8 C         143.0961  142.8291  156.9082 C.ar    1  UNL1        0.0001
      9 C         143.0312  143.7847  155.7539 C.ar    1  UNL1        0.0000
     10 C         142.3208  145.0971  155.9057 C.ar    1  UNL1        0.0001
     11 C         141.6752  145.4537  157.2119 C.ar    1  UNL1        0.0031
     12 C         141.7400  144.4981  158.3662 C.ar    1  UNL1        0.0371
     13 C         141.0944  144.8547  159.6723 C.ar    1  UNL1        0.1806
     14 N         139.6293  144.7729  159.9830 N.ar    1  UNL1       -0.1084
     15 N         139.4300  145.2234  161.3998 N.ar    1  UNL1       -0.0229
     16 N         140.7720  145.5837  161.9647 N.ar    1  UNL1       -0.0464
     17 N         141.8007  145.3559  160.8971 N.ar    1  UNL1       -0.2388
     18 H         142.7693  145.5085  160.9848 H       1  UNL1        0.1923
     19 C         142.7097  139.3630  162.8316 C.3     1  UNL1        0.2369
     20 C         141.7981  140.5919  165.0234 C.2     1  UNL1        0.3015
     21 N         140.6670  140.3547  165.9795 N.2     1  UNL1       -0.0666
     22 C         139.9296  139.1281  165.5301 C.3     1  UNL1        0.2640
     23 C         139.1924  137.9015  165.0806 C.3     1  UNL1        0.0606
     24 C         138.0613  137.6643  166.0367 C.3     1  UNL1        0.0051
     25 C         138.0994  138.7441  167.0771 C.3     1  UNL1        0.0051
     26 C         139.2542  139.6488  166.7640 C.3     1  UNL1        0.0606
     27 C         140.6052  138.6073  164.2961 C.2     1  UNL1        0.3577
     28 O         140.1975  137.3948  163.5129 O.2     1  UNL1       -0.2421
     29 N         141.7599  139.5120  163.9830 N.am    1  UNL1       -0.1369
     30 C         142.7928  141.7124  165.0950 C.3     1  UNL1        0.1172
     31 C         142.5459  142.9840  164.3387 C.3     1  UNL1        0.0127
     32 C         143.6774  145.3069  164.0672 C.3     1  UNL1        0.0000
     33 C         143.7035  143.8192  163.8777 C.3     1  UNL1        0.0006
@<TRIPOS>BOND
     1    32    33    1
     2    33    31    1
     3    31    30    1
     4    30    20    1
     5    20    21    2
     6    21    22    1
     7    22    23    1
     8    23    24    1
     9    24    25    1
    10    25    26    1
    11    22    27    1
    12    27    28    2
    13    27    29   am
    14    29    19    1
    15    19     1    1
    16     1     2   ar
    17     2     3   ar
    18     3     4   ar
    19     4     7    1
    20     7     8   ar
    21     8     9   ar
    22     9    10   ar
    23    10    11   ar
    24    11    12   ar
    25    12    13    1
    26    13    14   ar
    27    14    15   ar
    28    15    16   ar
    29    16    17   ar
    30     4     5   ar
    31     5     6   ar
    32    29    20    1
    33     6     1   ar
    34    26    22    1
    35    12     7   ar
    36    17    13   ar
    37    17    18    1
