@<TRIPOS>MOLECULE
*****
 30 33 0 0 0
SMALL
GASTEIGER

@<TRIPOS>ATOM
      1 N         140.2461  145.6424  157.6035 N.pl3   1  UNL1       -0.3274
      2 C         140.4030  144.9638  158.9320 C.ar    1  UNL1        0.2148
      3 N         141.4709  145.4156  159.8835 N.ar    1  UNL1       -0.1987
      4 C         141.6278  144.7370  161.2121 C.ar    1  UNL1        0.1388
      5 C         140.7167  143.6066  161.5890 C.ar    1  UNL1        0.0786
      6 S         140.6326  142.7529  162.8195 S.2     1  UNL1       -0.0826
      7 C         139.5127  141.7735  162.6285 C.ar    1  UNL1        0.0311
      8 C         138.9046  142.0218  161.2799 C.ar    1  UNL1        0.0263
      9 C         139.6488  143.1548  160.6375 C.ar    1  UNL1        0.0933
     10 N         139.4919  143.8334  159.3090 N.ar    1  UNL1       -0.2134
     11 H         140.8440  146.3843  157.3560 H       1  UNL1        0.1452
     12 H         139.5452  145.3458  156.9790 H       1  UNL1        0.1452
     13 C         139.0772  140.7290  163.6131 C.ar    1  UNL1        0.0060
     14 C         138.6338  141.1329  164.9879 C.ar    1  UNL1        0.0004
     15 C         138.1983  140.0884  165.9725 C.ar    1  UNL1        0.0039
     16 C         138.2063  138.6400  165.5823 C.ar    1  UNL1        0.0714
     17 C         138.6498  138.2362  164.2075 C.ar    1  UNL1        0.0039
     18 C         139.0852  139.2807  163.2229 C.ar    1  UNL1        0.0004
     19 C         137.7708  137.5956  166.5670 C.3     1  UNL1        0.4186
     20 F         137.3354  136.5512  167.5516 F       1  UNL1       -0.1659
     21 F         138.3290  136.5244  165.6775 F       1  UNL1       -0.1659
     22 F         137.2128  138.6669  167.4564 F       1  UNL1       -0.1659
     23 N         142.6957  145.1889  162.1636 N.pl3   1  UNL1       -0.3190
     24 H         142.7896  146.1446  162.3804 H       1  UNL1        0.1482
     25 C         143.6206  144.1846  162.7848 C.3     1  UNL1        0.0754
     26 C         144.3663  143.2145  161.9171 C.3     1  UNL1        0.0516
     27 C         145.2912  142.2102  162.5382 C.3     1  UNL1        0.1439
     28 O         145.4705  142.1760  164.0270 O.3     1  UNL1       -0.3537
     29 C         144.7248  143.1460  164.8948 C.3     1  UNL1        0.1439
     30 C         143.7999  144.1504  164.2736 C.3     1  UNL1        0.0516
@<TRIPOS>BOND
     1     1     2    1
     2     2     3   ar
     3     3     4   ar
     4     4    23    1
     5    23    25    1
     6    25    26    1
     7    26    27    1
     8    27    28    1
     9    28    29    1
    10    29    30    1
    11     4     5   ar
    12     5     6   ar
    13     6     7   ar
    14     7    13    1
    15    13    14   ar
    16    14    15   ar
    17    15    16   ar
    18    16    19    1
    19    19    20    1
    20    19    21    1
    21    19    22    1
    22    16    17   ar
    23    17    18   ar
    24     7     8   ar
    25     8     9   ar
    26     9    10   ar
    27    10     2   ar
    28    30    25    1
    29     9     5   ar
    30    18    13   ar
    31     1    11    1
    32     1    12    1
    33    23    24    1
@<TRIPOS>MOLECULE
*****
 30 33 0 0 0
SMALL
GASTEIGER

@<TRIPOS>ATOM
      1 N         139.6217  146.1424  159.4884 N.pl3   1  UNL1       -0.3274
      2 C         140.2013  145.3697  160.6360 C.ar    1  UNL1        0.2148
      3 N         141.6685  145.0593  160.6664 N.ar    1  UNL1       -0.1987
      4 C         142.2481  144.2865  161.8140 C.ar    1  UNL1        0.1388
      5 C         141.3604  143.8242  162.9313 C.ar    1  UNL1        0.0786
      6 S         141.6446  143.0501  164.1842 S.2     1  UNL1       -0.0826
      7 C         140.3530  142.8821  164.9283 C.ar    1  UNL1        0.0311
      8 C         139.2706  143.5523  164.1351 C.ar    1  UNL1        0.0263
      9 C         139.8932  144.1346  162.9009 C.ar    1  UNL1        0.0933
     10 N         139.3136  144.9073  161.7533 N.ar    1  UNL1       -0.2134
     11 H         140.2043  146.4459  158.7551 H       1  UNL1        0.1452
     12 H         138.6587  146.3461  159.4685 H       1  UNL1        0.1452
     13 C         140.1751  142.1690  166.2359 C.ar    1  UNL1        0.0060
     14 C         139.6797  140.7533  166.2568 C.ar    1  UNL1        0.0004
     15 C         139.5018  140.0403  167.5645 C.ar    1  UNL1        0.0039
     16 C         139.8193  140.7429  168.8512 C.ar    1  UNL1        0.0714
     17 C         140.3147  142.1586  168.8303 C.ar    1  UNL1        0.0039
     18 C         140.4926  142.8716  167.5226 C.ar    1  UNL1        0.0004
     19 C         139.6413  140.0299  170.1588 C.3     1  UNL1        0.4186
     20 F         139.4634  139.3168  171.4664 F       1  UNL1       -0.1659
     21 F         141.0030  139.4184  170.0107 F       1  UNL1       -0.1659
     22 F         138.2797  140.6414  170.3069 F       1  UNL1       -0.1659
     23 N         143.7153  143.9761  161.8443 N.pl3   1  UNL1       -0.3190
     24 H         144.3692  144.6618  161.5767 H       1  UNL1        0.1482
     25 C         144.1864  142.6211  162.2823 C.3     1  UNL1        0.0754
     26 C         143.7788  141.4003  161.5119 C.3     1  UNL1        0.0516
     27 C         144.2498  140.0451  161.9497 C.3     1  UNL1        0.1439
     28 O         145.1284  139.9108  163.1580 O.3     1  UNL1       -0.3537
     29 C         145.5360  141.1316  163.9285 C.3     1  UNL1        0.1439
     30 C         145.0650  142.4867  163.4906 C.3     1  UNL1        0.0516
@<TRIPOS>BOND
     1     1     2    1
     2     2     3   ar
     3     3     4   ar
     4     4    23    1
     5    23    25    1
     6    25    26    1
     7    26    27    1
     8    27    28    1
     9    28    29    1
    10    29    30    1
    11     4     5   ar
    12     5     6   ar
    13     6     7   ar
    14     7    13    1
    15    13    14   ar
    16    14    15   ar
    17    15    16   ar
    18    16    19    1
    19    19    20    1
    20    19    21    1
    21    19    22    1
    22    16    17   ar
    23    17    18   ar
    24     7     8   ar
    25     8     9   ar
    26     9    10   ar
    27    10     2   ar
    28    30    25    1
    29     9     5   ar
    30    18    13   ar
    31     1    11    1
    32     1    12    1
    33    23    24    1
@<TRIPOS>MOLECULE
*****
 30 33 0 0 0
SMALL
GASTEIGER

@<TRIPOS>ATOM
      1 N         144.8587  140.1570  157.3601 N.pl3   1  UNL1       -0.3274
      2 C         144.0739  140.4636  158.6012 C.ar    1  UNL1        0.2148
      3 N         144.0696  141.8551  159.1611 N.ar    1  UNL1       -0.1987
      4 C         143.2848  142.1617  160.4022 C.ar    1  UNL1        0.1388
      5 C         142.5044  141.0767  161.0832 C.ar    1  UNL1        0.0786
      6 S         141.6436  141.0794  162.3116 S.2     1  UNL1       -0.0826
      7 C         141.1159  139.6895  162.5108 C.ar    1  UNL1        0.0311
      8 C         141.6505  138.8278  161.4055 C.ar    1  UNL1        0.0263
      9 C         142.5087  139.6852  160.5231 C.ar    1  UNL1        0.0933
     10 N         143.2934  139.3786  159.2821 N.ar    1  UNL1       -0.2134
     11 H         145.3709  140.8690  156.9131 H       1  UNL1        0.1452
     12 H         144.8615  139.2436  156.9925 H       1  UNL1        0.1452
     13 C         140.2122  139.2401  163.6204 C.ar    1  UNL1        0.0060
     14 C         139.5048  140.2546  164.4691 C.ar    1  UNL1        0.0004
     15 C         138.6011  139.8051  165.5788 C.ar    1  UNL1        0.0039
     16 C         138.4048  138.3411  165.8398 C.ar    1  UNL1        0.0714
     17 C         139.1122  137.3265  164.9912 C.ar    1  UNL1        0.0039
     18 C         140.0159  137.7761  163.8815 C.ar    1  UNL1        0.0004
     19 C         137.5011  137.8917  166.9495 C.3     1  UNL1        0.4186
     20 F         136.5975  137.4423  168.0591 F       1  UNL1       -0.1659
     21 F         137.3401  139.3150  167.3948 F       1  UNL1       -0.1659
     22 F         137.6622  136.4684  166.5041 F       1  UNL1       -0.1659
     23 N         143.2805  143.5533  160.9622 N.pl3   1  UNL1       -0.3190
     24 H         144.0924  143.9165  161.3843 H       1  UNL1        0.1482
     25 C         142.0393  144.3913  160.8792 C.3     1  UNL1        0.0754
     26 C         141.4145  144.6760  159.5455 C.3     1  UNL1        0.0516
     27 C         140.1733  145.5141  159.4624 C.3     1  UNL1        0.1439
     28 O         139.5568  146.0675  160.7129 O.3     1  UNL1       -0.3537
     29 C         140.1816  145.7828  162.0465 C.3     1  UNL1        0.1439
     30 C         141.4229  144.9447  162.1297 C.3     1  UNL1        0.0516
@<TRIPOS>BOND
     1     1     2    1
     2     2     3   ar
     3     3     4   ar
     4     4    23    1
     5    23    25    1
     6    25    26    1
     7    26    27    1
     8    27    28    1
     9    28    29    1
    10    29    30    1
    11     4     5   ar
    12     5     6   ar
    13     6     7   ar
    14     7    13    1
    15    13    14   ar
    16    14    15   ar
    17    15    16   ar
    18    16    19    1
    19    19    20    1
    20    19    21    1
    21    19    22    1
    22    16    17   ar
    23    17    18   ar
    24     7     8   ar
    25     8     9   ar
    26     9    10   ar
    27    10     2   ar
    28    30    25    1
    29     9     5   ar
    30    18    13   ar
    31     1    11    1
    32     1    12    1
    33    23    24    1
@<TRIPOS>MOLECULE
*****
 30 33 0 0 0
SMALL
GASTEIGER

@<TRIPOS>ATOM
      1 N         139.8653  146.2122  159.4413 N.pl3   1  UNL1       -0.3274
      2 C         140.3811  145.3151  160.5273 C.ar    1  UNL1        0.2148
      3 N         141.7430  144.6982  160.4070 N.ar    1  UNL1       -0.1987
      4 C         142.2587  143.8011  161.4929 C.ar    1  UNL1        0.1388
      5 C         141.4123  143.5209  162.6992 C.ar    1  UNL1        0.0786
      6 S         141.6516  142.6838  163.9207 S.2     1  UNL1       -0.0826
      7 C         140.4375  142.7833  164.7959 C.ar    1  UNL1        0.0311
      8 C         139.4479  143.6819  164.1154 C.ar    1  UNL1        0.0263
      9 C         140.0503  144.1377  162.8196 C.ar    1  UNL1        0.0933
     10 N         139.5347  145.0348  161.7336 N.ar    1  UNL1       -0.2134
     11 H         140.4208  146.3962  158.6496 H       1  UNL1        0.1452
     12 H         138.9714  146.6171  159.5203 H       1  UNL1        0.1452
     13 C         140.2466  142.1036  166.1194 C.ar    1  UNL1        0.0060
     14 C         140.5874  142.8253  167.3893 C.ar    1  UNL1        0.0004
     15 C         140.3965  142.1455  168.7128 C.ar    1  UNL1        0.0039
     16 C         139.8646  140.7440  168.7663 C.ar    1  UNL1        0.0714
     17 C         139.5238  140.0222  167.4963 C.ar    1  UNL1        0.0039
     18 C         139.7148  140.7020  166.1729 C.ar    1  UNL1        0.0004
     19 C         139.6737  140.0643  170.0897 C.3     1  UNL1        0.4186
     20 F         139.4828  139.3846  171.4131 F       1  UNL1       -0.1659
     21 F         138.3354  140.7258  170.2364 F       1  UNL1       -0.1659
     22 F         141.0120  139.4028  169.9430 F       1  UNL1       -0.1659
     23 N         143.6207  143.1842  161.3725 N.pl3   1  UNL1       -0.3190
     24 H         144.4101  143.6637  161.7133 H       1  UNL1        0.1482
     25 C         143.7799  141.8368  160.7330 C.3     1  UNL1        0.0754
     26 C         143.7785  141.7114  159.2382 C.3     1  UNL1        0.0516
     27 C         143.9377  140.3640  158.5985 C.3     1  UNL1        0.1439
     28 O         144.0983  139.1421  159.4536 O.3     1  UNL1       -0.3537
     29 C         144.0997  139.2676  160.9484 C.3     1  UNL1        0.1439
     30 C         143.9405  140.6149  161.5880 C.3     1  UNL1        0.0516
@<TRIPOS>BOND
     1     1     2    1
     2     2     3   ar
     3     3     4   ar
     4     4    23    1
     5    23    25    1
     6    25    26    1
     7    26    27    1
     8    27    28    1
     9    28    29    1
    10    29    30    1
    11     4     5   ar
    12     5     6   ar
    13     6     7   ar
    14     7    13    1
    15    13    14   ar
    16    14    15   ar
    17    15    16   ar
    18    16    19    1
    19    19    20    1
    20    19    21    1
    21    19    22    1
    22    16    17   ar
    23    17    18   ar
    24     7     8   ar
    25     8     9   ar
    26     9    10   ar
    27    10     2   ar
    28    30    25    1
    29     9     5   ar
    30    18    13   ar
    31     1    11    1
    32     1    12    1
    33    23    24    1
@<TRIPOS>MOLECULE
*****
 30 33 0 0 0
SMALL
GASTEIGER

@<TRIPOS>ATOM
      1 N         137.3507  140.2792  157.6172 N.pl3   1  UNL1       -0.3274
      2 C         137.8034  140.7818  158.9561 C.ar    1  UNL1        0.2148
      3 N         138.3575  142.1694  159.0881 N.ar    1  UNL1       -0.1987
      4 C         138.8102  142.6720  160.4270 C.ar    1  UNL1        0.1388
      5 C         138.7086  141.7870  161.6338 C.ar    1  UNL1        0.0786
      6 S         139.0726  142.0058  163.0724 S.2     1  UNL1       -0.0826
      7 C         138.7434  140.7534  163.8295 C.ar    1  UNL1        0.0311
      8 C         138.1759  139.7606  162.8588 C.ar    1  UNL1        0.0263
      9 C         138.1544  140.3994  161.5017 C.ar    1  UNL1        0.0933
     10 N         137.7018  139.8968  160.1629 N.ar    1  UNL1       -0.2134
     11 H         137.4174  140.8600  156.8251 H       1  UNL1        0.1452
     12 H         136.9870  139.3685  157.5306 H       1  UNL1        0.1452
     13 C         138.9461  140.5326  165.2992 C.ar    1  UNL1        0.0060
     14 C         138.1825  139.4533  166.0078 C.ar    1  UNL1        0.0004
     15 C         138.3853  139.2325  167.4776 C.ar    1  UNL1        0.0039
     16 C         139.3515  140.0909  168.2388 C.ar    1  UNL1        0.0714
     17 C         140.1151  141.1702  167.5302 C.ar    1  UNL1        0.0039
     18 C         139.9123  141.3910  166.0604 C.ar    1  UNL1        0.0004
     19 C         139.5542  139.8701  169.7085 C.3     1  UNL1        0.4186
     20 F         139.7569  139.6493  171.1782 F       1  UNL1       -0.1659
     21 F         138.0817  140.0418  169.9374 F       1  UNL1       -0.1659
     22 F         141.0267  139.6985  169.4796 F       1  UNL1       -0.1659
     23 N         139.3643  144.0597  160.5590 N.pl3   1  UNL1       -0.3190
     24 H         138.9083  144.8154  160.1229 H       1  UNL1        0.1482
     25 C         140.6132  144.2959  161.3555 C.3     1  UNL1        0.0754
     26 C         140.5780  145.1932  162.5570 C.3     1  UNL1        0.0516
     27 C         141.8268  145.4295  163.3535 C.3     1  UNL1        0.1439
     28 O         143.1110  144.7684  162.9485 O.3     1  UNL1       -0.3537
     29 C         143.1462  143.8711  161.7471 C.3     1  UNL1        0.1439
     30 C         141.8974  143.6348  160.9505 C.3     1  UNL1        0.0516
@<TRIPOS>BOND
     1     1     2    1
     2     2     3   ar
     3     3     4   ar
     4     4    23    1
     5    23    25    1
     6    25    26    1
     7    26    27    1
     8    27    28    1
     9    28    29    1
    10    29    30    1
    11     4     5   ar
    12     5     6   ar
    13     6     7   ar
    14     7    13    1
    15    13    14   ar
    16    14    15   ar
    17    15    16   ar
    18    16    19    1
    19    19    20    1
    20    19    21    1
    21    19    22    1
    22    16    17   ar
    23    17    18   ar
    24     7     8   ar
    25     8     9   ar
    26     9    10   ar
    27    10     2   ar
    28    30    25    1
    29     9     5   ar
    30    18    13   ar
    31     1    11    1
    32     1    12    1
    33    23    24    1
@<TRIPOS>MOLECULE
*****
 30 33 0 0 0
SMALL
GASTEIGER

@<TRIPOS>ATOM
      1 N         144.0010  139.4674  158.3114 N.pl3   1  UNL1       -0.3274
      2 C         143.6156  140.0965  159.6174 C.ar    1  UNL1        0.2148
      3 N         143.6371  141.5889  159.7663 N.ar    1  UNL1       -0.1987
      4 C         143.2517  142.2180  161.0724 C.ar    1  UNL1        0.1388
      5 C         142.8449  141.3546  162.2295 C.ar    1  UNL1        0.0786
      6 S         142.4165  141.6872  163.6281 S.2     1  UNL1       -0.0826
      7 C         142.1302  140.4002  164.3435 C.ar    1  UNL1        0.0311
      8 C         142.3817  139.2723  163.3871 C.ar    1  UNL1        0.0263
      9 C         142.8234  139.8622  162.0806 C.ar    1  UNL1        0.0933
     10 N         143.2087  139.2331  160.7746 N.ar    1  UNL1       -0.2134
     11 H         144.2681  140.0340  157.5519 H       1  UNL1        0.1452
     12 H         143.9869  138.4878  158.2137 H       1  UNL1        0.1452
     13 C         141.6728  140.2649  165.7656 C.ar    1  UNL1        0.0060
     14 C         140.2159  140.3899  166.1000 C.ar    1  UNL1        0.0004
     15 C         139.7586  140.2546  167.5222 C.ar    1  UNL1        0.0039
     16 C         140.7581  139.9943  168.6100 C.ar    1  UNL1        0.0714
     17 C         142.2150  139.8693  168.2756 C.ar    1  UNL1        0.0039
     18 C         142.6723  140.0046  166.8534 C.ar    1  UNL1        0.0004
     19 C         140.3007  139.8589  170.0321 C.3     1  UNL1        0.4186
     20 F         139.8433  139.7236  171.4542 F       1  UNL1       -0.1659
     21 F         139.1483  140.7764  169.7488 F       1  UNL1       -0.1659
     22 F         141.4531  138.9415  170.3154 F       1  UNL1       -0.1659
     23 N         143.2733  143.7105  161.2212 N.pl3   1  UNL1       -0.3190
     24 H         144.1161  144.1716  161.4364 H       1  UNL1        0.1482
     25 C         142.0107  144.5003  161.0423 C.3     1  UNL1        0.0754
     26 C         141.4521  144.7201  159.6676 C.3     1  UNL1        0.0516
     27 C         140.1896  145.5100  159.4886 C.3     1  UNL1        0.1439
     28 O         139.4856  146.0800  160.6842 O.3     1  UNL1       -0.3537
     29 C         140.0442  145.8602  162.0589 C.3     1  UNL1        0.1439
     30 C         141.3068  145.0703  162.2379 C.3     1  UNL1        0.0516
@<TRIPOS>BOND
     1     1     2    1
     2     2     3   ar
     3     3     4   ar
     4     4    23    1
     5    23    25    1
     6    25    26    1
     7    26    27    1
     8    27    28    1
     9    28    29    1
    10    29    30    1
    11     4     5   ar
    12     5     6   ar
    13     6     7   ar
    14     7    13    1
    15    13    14   ar
    16    14    15   ar
    17    15    16   ar
    18    16    19    1
    19    19    20    1
    20    19    21    1
    21    19    22    1
    22    16    17   ar
    23    17    18   ar
    24     7     8   ar
    25     8     9   ar
    26     9    10   ar
    27    10     2   ar
    28    30    25    1
    29     9     5   ar
    30    18    13   ar
    31     1    11    1
    32     1    12    1
    33    23    24    1
@<TRIPOS>MOLECULE
*****
 30 33 0 0 0
SMALL
GASTEIGER

@<TRIPOS>ATOM
      1 N         141.8881  145.5743  158.4213 N.pl3   1  UNL1       -0.3274
      2 C         141.4173  144.8281  159.6344 C.ar    1  UNL1        0.2148
      3 N         140.1844  143.9771  159.5599 N.ar    1  UNL1       -0.1987
      4 C         139.7135  143.2310  160.7730 C.ar    1  UNL1        0.1388
      5 C         140.4757  143.3360  162.0607 C.ar    1  UNL1        0.0786
      6 S         140.2546  142.7210  163.4108 S.2     1  UNL1       -0.0826
      7 C         141.3509  143.1920  164.3198 C.ar    1  UNL1        0.0311
      8 C         142.2495  144.0981  163.5315 C.ar    1  UNL1        0.0263
      9 C         141.7086  144.1871  162.1352 C.ar    1  UNL1        0.0933
     10 N         142.1794  144.9332  160.9221 N.ar    1  UNL1       -0.2134
     11 H         141.3880  145.5054  157.5761 H       1  UNL1        0.1452
     12 H         142.6974  146.1329  158.4702 H       1  UNL1        0.1452
     13 C         141.5191  142.8219  165.7637 C.ar    1  UNL1        0.0060
     14 C         142.8684  142.4226  166.2833 C.ar    1  UNL1        0.0004
     15 C         143.0365  142.0525  167.7272 C.ar    1  UNL1        0.0039
     16 C         141.8554  142.0817  168.6515 C.ar    1  UNL1        0.0714
     17 C         140.5062  142.4810  168.1318 C.ar    1  UNL1        0.0039
     18 C         140.3381  142.8511  166.6879 C.ar    1  UNL1        0.0004
     19 C         142.0236  141.7116  170.0953 C.3     1  UNL1        0.4186
     20 F         142.1919  141.3415  171.5391 F       1  UNL1       -0.1659
     21 F         140.5436  141.8420  170.3012 F       1  UNL1       -0.1659
     22 F         143.5037  141.5812  169.8894 F       1  UNL1       -0.1659
     23 N         138.4806  142.3799  160.6984 N.pl3   1  UNL1       -0.3190
     24 H         137.5981  142.8009  160.5831 H       1  UNL1        0.1482
     25 C         138.5922  140.8875  160.7995 C.3     1  UNL1        0.0754
     26 C         139.5343  140.1433  159.9003 C.3     1  UNL1        0.0516
     27 C         139.6460  138.6509  160.0014 C.3     1  UNL1        0.1439
     28 O         138.8155  137.9027  161.0016 O.3     1  UNL1       -0.3537
     29 C         137.8733  138.6469  161.9008 C.3     1  UNL1        0.1439
     30 C         137.7617  140.1393  161.7998 C.3     1  UNL1        0.0516
@<TRIPOS>BOND
     1     1     2    1
     2     2     3   ar
     3     3     4   ar
     4     4    23    1
     5    23    25    1
     6    25    26    1
     7    26    27    1
     8    27    28    1
     9    28    29    1
    10    29    30    1
    11     4     5   ar
    12     5     6   ar
    13     6     7   ar
    14     7    13    1
    15    13    14   ar
    16    14    15   ar
    17    15    16   ar
    18    16    19    1
    19    19    20    1
    20    19    21    1
    21    19    22    1
    22    16    17   ar
    23    17    18   ar
    24     7     8   ar
    25     8     9   ar
    26     9    10   ar
    27    10     2   ar
    28    30    25    1
    29     9     5   ar
    30    18    13   ar
    31     1    11    1
    32     1    12    1
    33    23    24    1
@<TRIPOS>MOLECULE
*****
 30 33 0 0 0
SMALL
GASTEIGER

@<TRIPOS>ATOM
      1 N         144.9602  142.8154  157.9620 N.pl3   1  UNL1       -0.3274
      2 C         144.2462  142.8865  159.2793 C.ar    1  UNL1        0.2148
      3 N         143.0160  143.7329  159.4208 N.ar    1  UNL1       -0.1987
      4 C         142.3020  143.8040  160.7382 C.ar    1  UNL1        0.1388
      5 C         142.8183  143.0287  161.9139 C.ar    1  UNL1        0.0786
      6 S         142.3296  142.9037  163.3265 S.2     1  UNL1       -0.0826
      7 C         143.2579  141.9800  164.0580 C.ar    1  UNL1        0.0311
      8 C         144.3203  141.5342  163.0975 C.ar    1  UNL1        0.0263
      9 C         144.0486  142.1824  161.7723 C.ar    1  UNL1        0.0933
     10 N         144.7625  142.1113  160.4550 N.ar    1  UNL1       -0.2134
     11 H         144.6213  143.3242  157.1903 H       1  UNL1        0.1452
     12 H         145.7677  142.2598  157.8691 H       1  UNL1        0.1452
     13 C         143.1438  141.5734  165.4973 C.ar    1  UNL1        0.0060
     14 C         142.8342  140.1493  165.8521 C.ar    1  UNL1        0.0004
     15 C         142.7202  139.7428  167.2915 C.ar    1  UNL1        0.0039
     16 C         142.9157  140.7604  168.3761 C.ar    1  UNL1        0.0714
     17 C         143.2253  142.1846  168.0213 C.ar    1  UNL1        0.0039
     18 C         143.3394  142.5910  166.5819 C.ar    1  UNL1        0.0004
     19 C         142.8017  140.3539  169.8154 C.3     1  UNL1        0.4186
     20 F         142.6876  139.9473  171.2547 F       1  UNL1       -0.1659
     21 F         143.7550  141.4464  170.1996 F       1  UNL1       -0.1659
     22 F         141.8484  139.2613  169.4312 F       1  UNL1       -0.1659
     23 N         141.0717  144.6504  160.8796 N.pl3   1  UNL1       -0.3190
     24 H         141.0948  145.5998  160.6201 H       1  UNL1        0.1482
     25 C         139.8061  144.0504  161.4166 C.3     1  UNL1        0.0754
     26 C         139.0550  144.7427  162.5150 C.3     1  UNL1        0.0516
     27 C         137.7895  144.1426  163.0520 C.3     1  UNL1        0.1439
     28 O         137.2751  142.8503  162.4905 O.3     1  UNL1       -0.3537
     29 C         138.0262  142.1580  161.3921 C.3     1  UNL1        0.1439
     30 C         139.2917  142.7580  160.8551 C.3     1  UNL1        0.0516
@<TRIPOS>BOND
     1     1     2    1
     2     2     3   ar
     3     3     4   ar
     4     4    23    1
     5    23    25    1
     6    25    26    1
     7    26    27    1
     8    27    28    1
     9    28    29    1
    10    29    30    1
    11     4     5   ar
    12     5     6   ar
    13     6     7   ar
    14     7    13    1
    15    13    14   ar
    16    14    15   ar
    17    15    16   ar
    18    16    19    1
    19    19    20    1
    20    19    21    1
    21    19    22    1
    22    16    17   ar
    23    17    18   ar
    24     7     8   ar
    25     8     9   ar
    26     9    10   ar
    27    10     2   ar
    28    30    25    1
    29     9     5   ar
    30    18    13   ar
    31     1    11    1
    32     1    12    1
    33    23    24    1
@<TRIPOS>MOLECULE
*****
 30 33 0 0 0
SMALL
GASTEIGER

@<TRIPOS>ATOM
      1 N         142.9943  137.3481  158.2827 N.pl3   1  UNL1       -0.3274
      2 C         143.0193  138.1519  159.5490 C.ar    1  UNL1        0.2148
      3 N         143.7267  139.4740  159.5843 N.ar    1  UNL1       -0.1987
      4 C         143.7518  140.2778  160.8506 C.ar    1  UNL1        0.1388
      5 C         143.0693  139.7592  162.0816 C.ar    1  UNL1        0.0786
      6 S         142.9269  140.3244  163.4637 S.2     1  UNL1       -0.0826
      7 C         142.1314  139.3515  164.2826 C.ar    1  UNL1        0.0311
      8 C         141.7821  138.1850  163.4066 C.ar    1  UNL1        0.0263
      9 C         142.3618  138.4370  162.0463 C.ar    1  UNL1        0.0933
     10 N         142.3368  137.6333  160.7800 N.ar    1  UNL1       -0.2134
     11 H         143.4422  137.6884  157.4747 H       1  UNL1        0.1452
     12 H         142.5299  136.4803  158.2596 H       1  UNL1        0.1452
     13 C         141.7518  139.5161  165.7244 C.ar    1  UNL1        0.0060
     14 C         142.8001  139.4140  166.7924 C.ar    1  UNL1        0.0004
     15 C         142.4204  139.5786  168.2342 C.ar    1  UNL1        0.0039
     16 C         140.9924  139.8453  168.6080 C.ar    1  UNL1        0.0714
     17 C         139.9441  139.9474  167.5401 C.ar    1  UNL1        0.0039
     18 C         140.3238  139.7828  166.0982 C.ar    1  UNL1        0.0004
     19 C         140.6128  140.0100  170.0498 C.3     1  UNL1        0.4186
     20 F         140.2332  140.1746  171.4915 F       1  UNL1       -0.1659
     21 F         141.5378  138.8891  170.4213 F       1  UNL1       -0.1659
     22 F         139.6878  141.1308  169.6782 F       1  UNL1       -0.1659
     23 N         144.4593  141.6000  160.8858 N.pl3   1  UNL1       -0.3190
     24 H         145.3752  141.6777  160.5332 H       1  UNL1        0.1482
     25 C         143.7714  142.8037  161.4583 C.3     1  UNL1        0.0754
     26 C         142.4196  143.2079  160.9491 C.3     1  UNL1        0.0516
     27 C         141.7316  144.4116  161.5215 C.3     1  UNL1        0.1439
     28 O         142.3954  145.2111  162.6033 O.3     1  UNL1       -0.3537
     29 C         143.7471  144.8069  163.1125 C.3     1  UNL1        0.1439
     30 C         144.4351  143.6032  162.5401 C.3     1  UNL1        0.0516
@<TRIPOS>BOND
     1     1     2    1
     2     2     3   ar
     3     3     4   ar
     4     4    23    1
     5    23    25    1
     6    25    26    1
     7    26    27    1
     8    27    28    1
     9    28    29    1
    10    29    30    1
    11     4     5   ar
    12     5     6   ar
    13     6     7   ar
    14     7    13    1
    15    13    14   ar
    16    14    15   ar
    17    15    16   ar
    18    16    19    1
    19    19    20    1
    20    19    21    1
    21    19    22    1
    22    16    17   ar
    23    17    18   ar
    24     7     8   ar
    25     8     9   ar
    26     9    10   ar
    27    10     2   ar
    28    30    25    1
    29     9     5   ar
    30    18    13   ar
    31     1    11    1
    32     1    12    1
    33    23    24    1
