@<TRIPOS>MOLECULE
*****
 34 36 0 0 0
SMALL
GASTEIGER

@<TRIPOS>ATOM
      1 C         142.2842  143.2204  163.6185 C.3     1  UNL1        0.0991
      2 C         142.2704  140.7571  167.3844 C.ar    1  UNL1        0.1162
      3 C         143.2437  141.8881  167.2316 C.ar    1  UNL1        0.0189
      4 C         143.2483  142.7092  165.9763 C.ar    1  UNL1       -0.0024
      5 C         142.2796  142.3993  164.8738 C.ar    1  UNL1       -0.0129
      6 C         141.3063  141.2683  165.0266 C.ar    1  UNL1        0.0089
      7 C         141.3017  140.4472  166.2820 C.ar    1  UNL1        0.0744
      8 CL        140.3283  139.3161  166.4347 Cl      1  UNL1       -0.0809
      9 C         142.2611  139.1149  169.8951 C.3     1  UNL1        0.1816
     10 S         142.2657  139.9360  168.6397 S.O2    1  UNL1        0.0113
     11 O         143.1964  138.9499  167.9982 O.2     1  UNL1       -0.1685
     12 O         141.3351  140.9221  169.2813 O.2     1  UNL1       -0.1685
     13 C         143.0893  142.7749  162.4339 C.2     1  UNL1        0.2308
     14 O         144.5847  142.7028  162.5276 O.2     1  UNL1       -0.2744
     15 N         142.3991  142.4016  161.1556 N.am    1  UNL1       -0.2678
     16 H         141.4177  142.4489  161.0940 H       1  UNL1        0.1563
     17 C         143.2043  141.9561  159.9709 C.ar    1  UNL1        0.1535
     18 C         143.3313  140.4948  159.6571 C.ar    1  UNL1        0.1329
     19 N         144.1364  140.0493  158.4725 N.ar    1  UNL1       -0.2412
     20 C         144.8146  141.0651  157.6017 C.ar    1  UNL1        0.1074
     21 C         144.6876  142.5264  157.9155 C.ar    1  UNL1        0.1175
     22 N         143.8824  142.9719  159.1002 N.ar    1  UNL1       -0.2261
     23 C         145.6197  140.6196  156.4171 C.3     1  UNL1        0.1811
     24 O         145.5588  139.1912  155.9633 O.3     1  UNL1       -0.3762
     25 H         144.9575  138.6942  156.5397 H       1  UNL1        0.2109
     26 C         146.4857  141.6025  155.6864 C.3     1  UNL1        0.1726
     27 O         147.9750  141.4245  155.6724 O.3     1  UNL1       -0.3792
     28 H         148.3227  141.5384  156.5708 H       1  UNL1        0.2106
     29 C         141.4838  144.4869  163.5478 C.3     1  UNL1        0.0135
     30 C         139.9968  144.4462  163.7409 C.3     1  UNL1        0.0008
     31 C         139.2775  144.4724  165.0570 C.3     1  UNL1        0.0000
     32 C         137.8042  144.4145  164.7813 C.3     1  UNL1        0.0000
     33 C         137.6129  144.3525  163.2948 C.3     1  UNL1        0.0000
     34 C         138.9680  144.3721  162.6518 C.3     1  UNL1        0.0000
@<TRIPOS>BOND
     1     9    10    1
     2    10    11    2
     3    10    12    2
     4    10     2    1
     5     2     3   ar
     6     3     4   ar
     7     4     5   ar
     8     5     1    1
     9     1    29    1
    10    29    30    1
    11    30    31    1
    12    31    32    1
    13    32    33    1
    14    33    34    1
    15     1    13    1
    16    13    14    2
    17    13    15   am
    18    15    17    1
    19    17    18   ar
    20    18    19   ar
    21    19    20   ar
    22    20    23    1
    23    23    24    1
    24    23    26    1
    25    26    27    1
    26    20    21   ar
    27    21    22   ar
    28     5     6   ar
    29     6     7   ar
    30     7     8    1
    31     7     2   ar
    32    34    30    1
    33    22    17   ar
    34    15    16    1
    35    24    25    1
    36    27    28    1
@<TRIPOS>MOLECULE
*****
 34 36 0 0 0
SMALL
GASTEIGER

@<TRIPOS>ATOM
      1 C         143.0628  139.3821  164.4647 C.3     1  UNL1        0.0991
      2 C         142.8679  141.7506  168.2859 C.ar    1  UNL1        0.1162
      3 C         143.0748  142.4539  166.9773 C.ar    1  UNL1        0.0189
      4 C         143.1398  141.6644  165.7036 C.ar    1  UNL1       -0.0024
      5 C         142.9979  140.1716  165.7384 C.ar    1  UNL1       -0.0129
      6 C         142.7909  139.4683  167.0471 C.ar    1  UNL1        0.0089
      7 C         142.7259  140.2578  168.3208 C.ar    1  UNL1        0.0744
      8 CL        142.5190  139.5544  169.6295 Cl      1  UNL1       -0.0809
      9 C         142.7379  143.3297  170.8334 C.3     1  UNL1        0.1816
     10 S         142.8029  142.5402  169.5597 S.O2    1  UNL1        0.0113
     11 O         144.3014  142.5665  169.6198 O.2     1  UNL1       -0.1685
     12 O         141.3043  142.5138  169.4995 O.2     1  UNL1       -0.1685
     13 C         143.7588  139.9514  163.2641 C.2     1  UNL1        0.2308
     14 O         145.2492  140.1204  163.2711 O.2     1  UNL1       -0.2744
     15 N         142.9643  140.3517  162.0564 N.am    1  UNL1       -0.2678
     16 H         141.9860  140.2408  162.0517 H       1  UNL1        0.1563
     17 C         143.6603  140.9211  160.8557 C.ar    1  UNL1        0.1535
     18 C         144.3359  142.2574  160.9441 C.ar    1  UNL1        0.1329
     19 N         145.0319  142.8267  159.7435 N.ar    1  UNL1       -0.2412
     20 C         145.0522  142.0598  158.4545 C.ar    1  UNL1        0.1074
     21 C         144.3765  140.7235  158.3661 C.ar    1  UNL1        0.1175
     22 N         143.6806  140.1541  159.5668 N.ar    1  UNL1       -0.2261
     23 C         145.7482  142.6292  157.2539 C.3     1  UNL1        0.1811
     24 O         144.9700  142.9254  156.0063 O.3     1  UNL1       -0.3762
     25 H         144.0383  142.6927  156.1435 H       1  UNL1        0.2109
     26 C         147.2223  142.9023  157.3010 C.3     1  UNL1        0.1726
     27 O         147.8629  143.3431  158.5837 O.3     1  UNL1       -0.3792
     28 H         147.5275  144.2199  158.8279 H       1  UNL1        0.2106
     29 C         142.4319  138.0232  164.3916 C.3     1  UNL1        0.0135
     30 C         140.9621  137.8922  164.1227 C.3     1  UNL1        0.0008
     31 C         140.3219  137.7480  162.7738 C.3     1  UNL1        0.0000
     32 C         138.8384  137.6491  162.9729 C.3     1  UNL1        0.0000
     33 C         138.5618  137.7322  164.4449 C.3     1  UNL1        0.0000
     34 C         139.8742  137.8825  165.1555 C.3     1  UNL1        0.0000
@<TRIPOS>BOND
     1     9    10    1
     2    10    11    2
     3    10    12    2
     4    10     2    1
     5     2     3   ar
     6     3     4   ar
     7     4     5   ar
     8     5     1    1
     9     1    29    1
    10    29    30    1
    11    30    31    1
    12    31    32    1
    13    32    33    1
    14    33    34    1
    15     1    13    1
    16    13    14    2
    17    13    15   am
    18    15    17    1
    19    17    18   ar
    20    18    19   ar
    21    19    20   ar
    22    20    23    1
    23    23    24    1
    24    23    26    1
    25    26    27    1
    26    20    21   ar
    27    21    22   ar
    28     5     6   ar
    29     6     7   ar
    30     7     8    1
    31     7     2   ar
    32    34    30    1
    33    22    17   ar
    34    15    16    1
    35    24    25    1
    36    27    28    1
@<TRIPOS>MOLECULE
*****
 34 36 0 0 0
SMALL
GASTEIGER

@<TRIPOS>ATOM
      1 C         139.4323  139.9312  163.7842 C.3     1  UNL1        0.0991
      2 C         141.6696  140.2680  167.6741 C.ar    1  UNL1        0.1162
      3 C         142.4121  140.3426  166.3730 C.ar    1  UNL1        0.0189
      4 C         141.6664  140.2303  165.0763 C.ar    1  UNL1       -0.0024
      5 C         140.1781  140.0435  165.0809 C.ar    1  UNL1       -0.0129
      6 C         139.4356  139.9689  166.3820 C.ar    1  UNL1        0.0089
      7 C         140.1813  140.0811  167.6786 C.ar    1  UNL1        0.0744
      8 CL        139.4387  140.0066  168.9799 Cl      1  UNL1       -0.0809
      9 C         143.1611  140.4925  170.2674 C.3     1  UNL1        0.1816
     10 S         142.4154  140.3802  168.9707 S.O2    1  UNL1        0.0113
     11 O         142.7554  138.9209  168.9015 O.2     1  UNL1       -0.1685
     12 O         142.0754  141.8396  169.0399 O.2     1  UNL1       -0.1685
     13 C         140.0232  139.1564  162.6439 C.2     1  UNL1        0.2308
     14 O         139.9978  137.6567  162.6631 O.2     1  UNL1       -0.2744
     15 N         140.6394  139.8812  161.4842 N.am    1  UNL1       -0.2678
     16 H         140.6561  140.8655  161.4715 H       1  UNL1        0.1563
     17 C         141.2303  139.1063  160.3438 C.ar    1  UNL1        0.1535
     18 C         142.6390  138.5986  160.4321 C.ar    1  UNL1        0.1329
     19 N         143.2299  137.8237  159.2918 N.ar    1  UNL1       -0.2412
     20 C         142.4120  137.5566  158.0630 C.ar    1  UNL1        0.1074
     21 C         141.0033  138.0643  157.9746 C.ar    1  UNL1        0.1175
     22 N         140.4125  138.8392  159.1150 N.ar    1  UNL1       -0.2261
     23 C         143.0029  136.7817  156.9227 C.3     1  UNL1        0.1811
     24 O         143.0750  135.2850  156.9906 O.3     1  UNL1       -0.3762
     25 H         142.6999  134.9811  157.8319 H       1  UNL1        0.2109
     26 C         143.5217  137.5035  155.7144 C.3     1  UNL1        0.1726
     27 O         144.9687  137.3892  155.3363 O.3     1  UNL1       -0.3792
     28 H         145.5156  137.8049  156.0210 H       1  UNL1        0.2106
     29 C         138.0957  140.5938  163.6280 C.3     1  UNL1        0.0135
     30 C         137.9939  142.0902  163.6447 C.3     1  UNL1        0.0008
     31 C         138.0945  142.9673  164.8573 C.3     1  UNL1        0.0000
     32 C         137.9363  144.3915  164.4138 C.3     1  UNL1        0.0000
     33 C         137.7380  144.3946  162.9270 C.3     1  UNL1        0.0000
     34 C         137.7735  142.9723  162.4516 C.3     1  UNL1        0.0000
@<TRIPOS>BOND
     1     9    10    1
     2    10    11    2
     3    10    12    2
     4    10     2    1
     5     2     3   ar
     6     3     4   ar
     7     4     5   ar
     8     5     1    1
     9     1    29    1
    10    29    30    1
    11    30    31    1
    12    31    32    1
    13    32    33    1
    14    33    34    1
    15     1    13    1
    16    13    14    2
    17    13    15   am
    18    15    17    1
    19    17    18   ar
    20    18    19   ar
    21    19    20   ar
    22    20    23    1
    23    23    24    1
    24    23    26    1
    25    26    27    1
    26    20    21   ar
    27    21    22   ar
    28     5     6   ar
    29     6     7   ar
    30     7     8    1
    31     7     2   ar
    32    34    30    1
    33    22    17   ar
    34    15    16    1
    35    24    25    1
    36    27    28    1
@<TRIPOS>MOLECULE
*****
 34 36 0 0 0
SMALL
GASTEIGER

@<TRIPOS>ATOM
      1 C         140.2979  140.5309  164.0638 C.3     1  UNL1        0.0991
      2 C         141.6230  141.7437  168.1897 C.ar    1  UNL1        0.1162
      3 C         140.7867  142.6774  167.3658 C.ar    1  UNL1        0.0189
      4 C         140.3450  142.2731  165.9905 C.ar    1  UNL1       -0.0024
      5 C         140.7396  140.9352  165.4391 C.ar    1  UNL1       -0.0129
      6 C         141.5760  140.0015  166.2629 C.ar    1  UNL1        0.0089
      7 C         142.0177  140.4058  167.6382 C.ar    1  UNL1        0.0744
      8 CL        142.8541  139.4721  168.4621 Cl      1  UNL1       -0.0809
      9 C         142.5064  142.5523  170.9403 C.3     1  UNL1        0.1816
     10 S         142.0647  142.1480  169.5650 S.O2    1  UNL1        0.0113
     11 O         143.3494  142.6748  168.9975 O.2     1  UNL1       -0.1685
     12 O         140.7800  141.6212  170.1324 O.2     1  UNL1       -0.1685
     13 C         140.6449  141.3877  162.8825 C.2     1  UNL1        0.2308
     14 O         141.9377  141.1717  162.1531 O.2     1  UNL1       -0.2744
     15 N         139.6990  142.4606  162.4305 N.am    1  UNL1       -0.2678
     16 H         138.8505  142.6024  162.9092 H       1  UNL1        0.1563
     17 C         140.0460  143.3174  161.2491 C.ar    1  UNL1        0.1535
     18 C         140.5541  144.7131  161.4584 C.ar    1  UNL1        0.1329
     19 N         140.9011  145.5699  160.2771 N.ar    1  UNL1       -0.2412
     20 C         140.7399  145.0311  158.8865 C.ar    1  UNL1        0.1074
     21 C         140.2318  143.6353  158.6773 C.ar    1  UNL1        0.1175
     22 N         139.8848  142.7785  159.8586 N.ar    1  UNL1       -0.2261
     23 C         141.0869  145.8879  157.7053 C.3     1  UNL1        0.1811
     24 O         142.4938  146.3733  157.5184 O.3     1  UNL1       -0.3762
     25 H         143.0480  146.0456  158.2439 H       1  UNL1        0.2109
     26 C         140.0270  146.2592  156.7109 C.3     1  UNL1        0.1726
     27 O         139.3887  147.6155  156.7664 O.3     1  UNL1       -0.3792
     28 H         138.8781  147.6992  157.5869 H       1  UNL1        0.2106
     29 C         139.5093  139.2698  163.8697 C.3     1  UNL1        0.0135
     30 C         138.7721  138.6609  165.0255 C.3     1  UNL1        0.0008
     31 C         138.6480  137.1951  165.3184 C.3     1  UNL1        0.0000
     32 C         137.8287  137.0392  166.5652 C.3     1  UNL1        0.0000
     33 C         137.4465  138.4087  167.0429 C.3     1  UNL1        0.0000
     34 C         138.0295  139.4111  166.0913 C.3     1  UNL1        0.0000
@<TRIPOS>BOND
     1     9    10    1
     2    10    11    2
     3    10    12    2
     4    10     2    1
     5     2     3   ar
     6     3     4   ar
     7     4     5   ar
     8     5     1    1
     9     1    29    1
    10    29    30    1
    11    30    31    1
    12    31    32    1
    13    32    33    1
    14    33    34    1
    15     1    13    1
    16    13    14    2
    17    13    15   am
    18    15    17    1
    19    17    18   ar
    20    18    19   ar
    21    19    20   ar
    22    20    23    1
    23    23    24    1
    24    23    26    1
    25    26    27    1
    26    20    21   ar
    27    21    22   ar
    28     5     6   ar
    29     6     7   ar
    30     7     8    1
    31     7     2   ar
    32    34    30    1
    33    22    17   ar
    34    15    16    1
    35    24    25    1
    36    27    28    1
@<TRIPOS>MOLECULE
*****
 34 36 0 0 0
SMALL
GASTEIGER

@<TRIPOS>ATOM
      1 C         139.3056  139.9463  163.4399 C.3     1  UNL1        0.0991
      2 C         141.5181  140.3059  167.3419 C.ar    1  UNL1        0.1162
      3 C         140.2014  139.5893  167.2896 C.ar    1  UNL1        0.0189
      4 C         139.4639  139.4694  165.9889 C.ar    1  UNL1       -0.0024
      5 C         140.0431  140.0661  164.7406 C.ar    1  UNL1       -0.0129
      6 C         141.3598  140.7827  164.7929 C.ar    1  UNL1        0.0089
      7 C         142.0973  140.9026  166.0936 C.ar    1  UNL1        0.0744
      8 CL        143.4140  141.6193  166.1459 Cl      1  UNL1       -0.0809
      9 C         142.9930  140.5456  169.9433 C.3     1  UNL1        0.1816
     10 S         142.2556  140.4258  168.6426 S.O2    1  UNL1        0.0113
     11 O         142.9980  139.1583  168.3385 O.2     1  UNL1       -0.1685
     12 O         141.5132  141.6932  168.9467 O.2     1  UNL1       -0.1685
     13 C         139.8780  139.1200  162.3265 C.2     1  UNL1        0.2308
     14 O         139.7051  137.6300  162.3329 O.2     1  UNL1       -0.2744
     15 N         140.6234  139.7838  161.2068 N.am    1  UNL1       -0.2678
     16 H         140.7370  140.7617  161.2026 H       1  UNL1        0.1563
     17 C         141.1959  138.9575  160.0934 C.ar    1  UNL1        0.1535
     18 C         142.5213  138.2775  160.2691 C.ar    1  UNL1        0.1329
     19 N         143.0938  137.4512  159.1558 N.ar    1  UNL1       -0.2412
     20 C         142.3408  137.3049  157.8667 C.ar    1  UNL1        0.1074
     21 C         141.0154  137.9849  157.6909 C.ar    1  UNL1        0.1175
     22 N         140.4429  138.8112  158.8044 N.ar    1  UNL1       -0.2261
     23 C         142.9133  136.4787  156.7533 C.3     1  UNL1        0.1811
     24 O         142.6936  134.9950  156.7311 O.3     1  UNL1       -0.3762
     25 H         142.1659  134.7347  157.5022 H       1  UNL1        0.2109
     26 C         143.7054  137.1360  155.6623 C.3     1  UNL1        0.1726
     27 O         144.9578  136.4885  155.1503 O.3     1  UNL1       -0.3792
     28 H         145.6267  136.4779  155.8527 H       1  UNL1        0.2106
     29 C         137.9957  140.6526  163.2526 C.3     1  UNL1        0.0135
     30 C         137.9165  142.1416  163.4154 C.3     1  UNL1        0.0008
     31 C         137.9437  143.1524  162.3075 C.3     1  UNL1        0.0000
     32 C         137.8402  144.5168  162.9221 C.3     1  UNL1        0.0000
     33 C         137.7490  144.3493  164.4099 C.3     1  UNL1        0.0000
     34 C         137.7961  142.8813  164.7149 C.3     1  UNL1        0.0000
@<TRIPOS>BOND
     1     9    10    1
     2    10    11    2
     3    10    12    2
     4    10     2    1
     5     2     3   ar
     6     3     4   ar
     7     4     5   ar
     8     5     1    1
     9     1    29    1
    10    29    30    1
    11    30    31    1
    12    31    32    1
    13    32    33    1
    14    33    34    1
    15     1    13    1
    16    13    14    2
    17    13    15   am
    18    15    17    1
    19    17    18   ar
    20    18    19   ar
    21    19    20   ar
    22    20    23    1
    23    23    24    1
    24    23    26    1
    25    26    27    1
    26    20    21   ar
    27    21    22   ar
    28     5     6   ar
    29     6     7   ar
    30     7     8    1
    31     7     2   ar
    32    34    30    1
    33    22    17   ar
    34    15    16    1
    35    24    25    1
    36    27    28    1
@<TRIPOS>MOLECULE
*****
 34 36 0 0 0
SMALL
GASTEIGER

@<TRIPOS>ATOM
      1 C         140.1953  140.5146  163.7827 C.3     1  UNL1        0.0991
      2 C         142.1843  141.3636  167.7290 C.ar    1  UNL1        0.1162
      3 C         142.7273  140.2922  166.8306 C.ar    1  UNL1        0.0189
      4 C         142.0643  140.0092  165.5151 C.ar    1  UNL1       -0.0024
      5 C         140.8583  140.7976  165.0981 C.ar    1  UNL1       -0.0129
      6 C         140.3153  141.8690  165.9965 C.ar    1  UNL1        0.0089
      7 C         140.9783  142.1520  167.3119 C.ar    1  UNL1        0.0744
      8 CL        140.4353  143.2235  168.2103 Cl      1  UNL1       -0.0809
      9 C         143.5102  141.9296  170.3598 C.3     1  UNL1        0.1816
     10 S         142.8473  141.6466  169.0444 S.O2    1  UNL1        0.0113
     11 O         141.9805  140.6148  169.7032 O.2     1  UNL1       -0.1685
     12 O         143.7140  142.6784  168.3856 O.2     1  UNL1       -0.1685
     13 C         140.4777  141.3889  162.5970 C.2     1  UNL1        0.2308
     14 O         141.6945  141.1416  161.7555 O.2     1  UNL1       -0.2744
     15 N         139.5432  142.5107  162.2529 N.am    1  UNL1       -0.2678
     16 H         138.7445  142.6730  162.8052 H       1  UNL1        0.1563
     17 C         139.8255  143.3851  161.0672 C.ar    1  UNL1        0.1535
     18 C         139.2246  143.0562  159.7327 C.ar    1  UNL1        0.1329
     19 N         139.5070  143.9305  158.5471 N.ar    1  UNL1       -0.2412
     20 C         140.3902  145.1337  158.6958 C.ar    1  UNL1        0.1074
     21 C         140.9911  145.4626  160.0303 C.ar    1  UNL1        0.1175
     22 N         140.7087  144.5883  161.2160 N.ar    1  UNL1       -0.2261
     23 C         140.6726  146.0080  157.5102 C.3     1  UNL1        0.1811
     24 O         139.6952  147.0753  157.1157 O.3     1  UNL1       -0.3762
     25 H         138.9417  147.0655  157.7265 H       1  UNL1        0.2109
     26 C         141.9322  145.8151  156.7190 C.3     1  UNL1        0.1726
     27 O         142.8966  144.7302  157.0971 O.3     1  UNL1       -0.3792
     28 H         143.2795  144.9265  157.9665 H       1  UNL1        0.2106
     29 C         139.2500  139.3572  163.6528 C.3     1  UNL1        0.0135
     30 C         138.6695  138.7216  164.8812 C.3     1  UNL1        0.0008
     31 C         138.6834  137.2574  165.2068 C.3     1  UNL1        0.0000
     32 C         137.9957  137.0694  166.5265 C.3     1  UNL1        0.0000
     33 C         137.5567  138.4173  167.0166 C.3     1  UNL1        0.0000
     34 C         137.9731  139.4385  165.9998 C.3     1  UNL1        0.0000
@<TRIPOS>BOND
     1     9    10    1
     2    10    11    2
     3    10    12    2
     4    10     2    1
     5     2     3   ar
     6     3     4   ar
     7     4     5   ar
     8     5     1    1
     9     1    29    1
    10    29    30    1
    11    30    31    1
    12    31    32    1
    13    32    33    1
    14    33    34    1
    15     1    13    1
    16    13    14    2
    17    13    15   am
    18    15    17    1
    19    17    18   ar
    20    18    19   ar
    21    19    20   ar
    22    20    23    1
    23    23    24    1
    24    23    26    1
    25    26    27    1
    26    20    21   ar
    27    21    22   ar
    28     5     6   ar
    29     6     7   ar
    30     7     8    1
    31     7     2   ar
    32    34    30    1
    33    22    17   ar
    34    15    16    1
    35    24    25    1
    36    27    28    1
@<TRIPOS>MOLECULE
*****
 34 36 0 0 0
SMALL
GASTEIGER

@<TRIPOS>ATOM
      1 C         140.7635  141.2941  162.9762 C.3     1  UNL1        0.0991
      2 C         141.9984  140.6292  167.2520 C.ar    1  UNL1        0.1162
      3 C         142.9754  141.2046  166.2700 C.ar    1  UNL1        0.0189
      4 C         142.5638  141.4263  164.8447 C.ar    1  UNL1       -0.0024
      5 C         141.1751  141.0725  164.4014 C.ar    1  UNL1       -0.0129
      6 C         140.1982  140.4971  165.3834 C.ar    1  UNL1        0.0089
      7 C         140.6098  140.2754  166.8087 C.ar    1  UNL1        0.0744
      8 CL        139.6327  139.7000  167.7908 Cl      1  UNL1       -0.0809
      9 C         142.8217  140.1860  170.1026 C.3     1  UNL1        0.1816
     10 S         142.4101  140.4076  168.6773 S.O2    1  UNL1        0.0113
     11 O         141.8489  141.7484  169.0479 O.2     1  UNL1       -0.1685
     12 O         142.9712  139.0668  168.3067 O.2     1  UNL1       -0.1685
     13 C         141.0069  140.2269  161.9506 C.2     1  UNL1        0.2308
     14 O         140.9860  138.7818  162.3524 O.2     1  UNL1       -0.2744
     15 N         141.2712  140.6047  160.5232 N.am    1  UNL1       -0.2678
     16 H         141.2849  141.5531  160.2595 H       1  UNL1        0.1563
     17 C         141.5146  139.5374  159.4976 C.ar    1  UNL1        0.1535
     18 C         142.8681  138.9008  159.3844 C.ar    1  UNL1        0.1329
     19 N         143.1115  137.8336  158.3589 N.ar    1  UNL1       -0.2412
     20 C         142.0015  137.4029  157.4466 C.ar    1  UNL1        0.1074
     21 C         140.6480  138.0395  157.5598 C.ar    1  UNL1        0.1175
     22 N         140.4046  139.1068  158.5854 N.ar    1  UNL1       -0.2261
     23 C         142.2449  136.3357  156.4210 C.3     1  UNL1        0.1811
     24 O         141.1035  135.4992  155.9237 O.3     1  UNL1       -0.3762
     25 H         140.2843  135.7758  156.3634 H       1  UNL1        0.2109
     26 C         143.6298  136.1050  155.8929 C.3     1  UNL1        0.1726
     27 O         144.2393  134.7360  155.9590 O.3     1  UNL1       -0.3792
     28 H         144.3758  134.4873  156.8866 H       1  UNL1        0.2106
     29 C         140.1085  142.5829  162.5764 C.3     1  UNL1        0.0135
     30 C         139.3370  143.3775  163.5881 C.3     1  UNL1        0.0008
     31 C         139.9003  144.4245  164.5026 C.3     1  UNL1        0.0000
     32 C         138.7782  144.9587  165.3426 C.3     1  UNL1        0.0000
     33 C         137.5213  144.2417  164.9473 C.3     1  UNL1        0.0000
     34 C         137.8666  143.2644  163.8629 C.3     1  UNL1        0.0000
@<TRIPOS>BOND
     1     9    10    1
     2    10    11    2
     3    10    12    2
     4    10     2    1
     5     2     3   ar
     6     3     4   ar
     7     4     5   ar
     8     5     1    1
     9     1    29    1
    10    29    30    1
    11    30    31    1
    12    31    32    1
    13    32    33    1
    14    33    34    1
    15     1    13    1
    16    13    14    2
    17    13    15   am
    18    15    17    1
    19    17    18   ar
    20    18    19   ar
    21    19    20   ar
    22    20    23    1
    23    23    24    1
    24    23    26    1
    25    26    27    1
    26    20    21   ar
    27    21    22   ar
    28     5     6   ar
    29     6     7   ar
    30     7     8    1
    31     7     2   ar
    32    34    30    1
    33    22    17   ar
    34    15    16    1
    35    24    25    1
    36    27    28    1
@<TRIPOS>MOLECULE
*****
 34 36 0 0 0
SMALL
GASTEIGER

@<TRIPOS>ATOM
      1 C         141.4014  141.5190  162.8026 C.3     1  UNL1        0.0991
      2 C         141.8061  140.2793  167.1095 C.ar    1  UNL1        0.1162
      3 C         140.9556  139.4727  166.1736 C.ar    1  UNL1        0.0189
      4 C         140.8207  139.8860  164.7380 C.ar    1  UNL1       -0.0024
      5 C         141.5363  141.1058  164.2382 C.ar    1  UNL1       -0.0129
      6 C         142.3869  141.9124  165.1741 C.ar    1  UNL1        0.0089
      7 C         142.5218  141.4991  166.6097 C.ar    1  UNL1        0.0744
      8 CL        143.3725  142.3058  167.5456 Cl      1  UNL1       -0.0809
      9 C         142.0760  139.4529  169.9807 C.3     1  UNL1        0.1816
     10 S         141.9411  139.8661  168.5451 S.O2    1  UNL1        0.0113
     11 O         140.7739  140.7367  168.9054 O.2     1  UNL1       -0.1685
     12 O         143.1082  138.9955  168.1848 O.2     1  UNL1       -0.1685
     13 C         141.9277  140.6314  161.7140 C.2     1  UNL1        0.2308
     14 O         142.9688  139.5977  162.0267 O.2     1  UNL1       -0.2744
     15 N         141.4130  140.7773  160.3126 N.am    1  UNL1       -0.2678
     16 H         140.7297  141.4558  160.1074 H       1  UNL1        0.1563
     17 C         141.9394  139.8896  159.2240 C.ar    1  UNL1        0.1535
     18 C         143.2823  140.1652  158.6153 C.ar    1  UNL1        0.1329
     19 N         143.8087  139.2775  157.5267 N.ar    1  UNL1       -0.2412
     20 C         142.9921  138.1143  157.0469 C.ar    1  UNL1        0.1074
     21 C         141.6492  137.8387  157.6557 C.ar    1  UNL1        0.1175
     22 N         141.1228  138.7265  158.7443 N.ar    1  UNL1       -0.2261
     23 C         143.5185  137.2267  155.9583 C.3     1  UNL1        0.1811
     24 O         144.3747  137.8023  154.8696 O.3     1  UNL1       -0.3762
     25 H         144.4900  138.7539  155.0180 H       1  UNL1        0.2109
     26 C         143.1887  135.7634  155.9586 C.3     1  UNL1        0.1726
     27 O         144.2578  134.7536  156.2542 O.3     1  UNL1       -0.3792
     28 H         144.9223  134.7701  155.5477 H       1  UNL1        0.2106
     29 C         140.7402  142.8199  162.4555 C.3     1  UNL1        0.0135
     30 C         139.7639  143.4428  163.4089 C.3     1  UNL1        0.0008
     31 C         138.3424  143.0135  163.6210 C.3     1  UNL1        0.0000
     32 C         137.7377  143.9098  164.6607 C.3     1  UNL1        0.0000
     33 C         138.7855  144.8930  165.0912 C.3     1  UNL1        0.0000
     34 C         140.0378  144.6045  164.3175 C.3     1  UNL1        0.0000
@<TRIPOS>BOND
     1     9    10    1
     2    10    11    2
     3    10    12    2
     4    10     2    1
     5     2     3   ar
     6     3     4   ar
     7     4     5   ar
     8     5     1    1
     9     1    29    1
    10    29    30    1
    11    30    31    1
    12    31    32    1
    13    32    33    1
    14    33    34    1
    15     1    13    1
    16    13    14    2
    17    13    15   am
    18    15    17    1
    19    17    18   ar
    20    18    19   ar
    21    19    20   ar
    22    20    23    1
    23    23    24    1
    24    23    26    1
    25    26    27    1
    26    20    21   ar
    27    21    22   ar
    28     5     6   ar
    29     6     7   ar
    30     7     8    1
    31     7     2   ar
    32    34    30    1
    33    22    17   ar
    34    15    16    1
    35    24    25    1
    36    27    28    1
@<TRIPOS>MOLECULE
*****
 34 36 0 0 0
SMALL
GASTEIGER

@<TRIPOS>ATOM
      1 C         140.8804  141.7968  162.2508 C.3     1  UNL1        0.0991
      2 C         142.1417  139.2424  158.7674 C.ar    1  UNL1        0.1162
      3 C         141.3828  140.5140  158.5289 C.ar    1  UNL1        0.0189
      4 C         140.9624  141.3655  159.6901 C.ar    1  UNL1       -0.0024
      5 C         141.3008  140.9453  161.0896 C.ar    1  UNL1       -0.0129
      6 C         142.0597  139.6737  161.3281 C.ar    1  UNL1        0.0089
      7 C         142.4801  138.8222  160.1669 C.ar    1  UNL1        0.0744
      8 CL        143.2390  137.5504  160.4054 Cl      1  UNL1       -0.0809
      9 C         142.9825  137.5394  156.4451 C.3     1  UNL1        0.1816
     10 S         142.5621  138.3909  157.6062 S.O2    1  UNL1        0.0113
     11 O         141.2362  137.6902  157.6400 O.2     1  UNL1       -0.1685
     12 O         143.8879  139.0915  157.5725 O.2     1  UNL1       -0.1685
     13 C         141.3796  141.4836  163.6301 C.2     1  UNL1        0.2308
     14 O         142.6019  142.1731  164.1599 O.2     1  UNL1       -0.2744
     15 N         140.6566  140.4809  164.4797 N.am    1  UNL1       -0.2678
     16 H         139.8543  140.0284  164.1320 H       1  UNL1        0.1563
     17 C         141.1559  140.1677  165.8591 C.ar    1  UNL1        0.1535
     18 C         142.3564  139.2868  166.0401 C.ar    1  UNL1        0.1329
     19 N         142.8557  138.9736  167.4194 N.ar    1  UNL1       -0.2412
     20 C         142.1545  139.5413  168.6178 C.ar    1  UNL1        0.1074
     21 C         140.9539  140.4222  168.4368 C.ar    1  UNL1        0.1175
     22 N         140.4546  140.7354  167.0574 N.ar    1  UNL1       -0.2261
     23 C         142.6538  139.2281  169.9971 C.3     1  UNL1        0.1811
     24 O         143.0428  137.8238  170.3530 O.3     1  UNL1       -0.3762
     25 H         142.9121  137.2474  169.5839 H       1  UNL1        0.2109
     26 C         142.7640  140.3191  171.0206 C.3     1  UNL1        0.1726
     27 O         141.5772  140.6784  171.8646 O.3     1  UNL1       -0.3792
     28 H         140.8818  141.0535  171.3018 H       1  UNL1        0.2106
     29 C         139.9607  142.9615  162.0325 C.3     1  UNL1        0.0135
     30 C         139.2494  143.5840  163.1973 C.3     1  UNL1        0.0008
     31 C         137.8412  143.2963  163.6265 C.3     1  UNL1        0.0000
     32 C         137.5429  144.1379  164.8318 C.3     1  UNL1        0.0000
     33 C         138.7667  144.9458  165.1474 C.3     1  UNL1        0.0000
     34 C         139.8214  144.6035  164.1373 C.3     1  UNL1        0.0000
@<TRIPOS>BOND
     1     9    10    1
     2    10    11    2
     3    10    12    2
     4    10     2    1
     5     2     3   ar
     6     3     4   ar
     7     4     5   ar
     8     5     1    1
     9     1    29    1
    10    29    30    1
    11    30    31    1
    12    31    32    1
    13    32    33    1
    14    33    34    1
    15     1    13    1
    16    13    14    2
    17    13    15   am
    18    15    17    1
    19    17    18   ar
    20    18    19   ar
    21    19    20   ar
    22    20    23    1
    23    23    24    1
    24    23    26    1
    25    26    27    1
    26    20    21   ar
    27    21    22   ar
    28     5     6   ar
    29     6     7   ar
    30     7     8    1
    31     7     2   ar
    32    34    30    1
    33    22    17   ar
    34    15    16    1
    35    24    25    1
    36    27    28    1
