@<TRIPOS>MOLECULE
*****
 35 38 0 0 0
SMALL
GASTEIGER

@<TRIPOS>ATOM
      1 C         141.9500  139.7413  170.0063 C.3     1  UNL1        0.1459
      2 O         142.5249  140.1004  171.3443 O.3     1  UNL1       -0.3813
      3 H         143.4381  139.7780  171.4010 H       1  UNL1        0.2105
      4 C         142.7836  138.9939  169.0079 C.3     1  UNL1        0.1204
      5 O         144.2836  137.3850  166.9679 O.2     1  UNL1       -0.2705
      6 C         143.5879  138.6503  166.5615 C.2     1  UNL1        0.2424
      7 N         142.8379  139.4547  167.5815 N.am    1  UNL1       -0.2987
      8 H         142.3814  140.2852  167.3147 H       1  UNL1        0.1498
      9 C         143.6423  139.1111  165.1351 C.2     1  UNL1        0.0416
     10 C         144.7399  140.0288  164.6847 C.3     1  UNL1        0.1180
     11 C         144.7943  140.4897  163.2582 C.2     1  UNL1        0.2501
     12 O         145.8921  141.4074  162.8079 O.2     1  UNL1       -0.2726
     13 N         143.7510  140.0328  162.2822 N.am    1  UNL1       -0.1789
     14 C         142.6532  139.1151  162.7326 C.ar    1  UNL1        0.0732
     15 C         141.6099  138.6582  161.7565 C.ar    1  UNL1        0.0166
     16 C         140.5122  137.7405  162.2069 C.ar    1  UNL1        0.0013
     17 C         140.4578  137.2797  163.6333 C.ar    1  UNL1        0.0001
     18 C         141.5012  137.7365  164.6094 C.ar    1  UNL1        0.0011
     19 C         142.5989  138.6542  164.1590 C.ar    1  UNL1        0.0162
     20 C         140.5415  140.1295  169.6665 C.3     1  UNL1        0.1034
     21 N         140.2413  140.7882  168.3527 N.3     1  UNL1       -0.2704
     22 C         139.5754  140.0087  167.2578 C.3     1  UNL1        0.0759
     23 C         139.2751  140.6673  165.9440 C.3     1  UNL1        0.0609
     24 C         139.6408  142.1055  165.7251 C.3     1  UNL1        0.1687
     25 C         140.3068  142.8850  166.8201 C.3     1  UNL1        0.0609
     26 C         140.6070  142.2263  168.1339 C.3     1  UNL1        0.0759
     27 O         139.3406  142.7642  164.4114 O.3     1  UNL1       -0.4790
     28 C         140.4000  142.8427  163.3523 C.ar    1  UNL1        0.1393
     29 C         140.1718  142.2040  162.0144 C.ar    1  UNL1        0.0378
     30 C         141.2312  142.2826  160.9554 C.ar    1  UNL1        0.0154
     31 C         142.5187  142.9998  161.2343 C.ar    1  UNL1        0.0684
     32 CL        143.5781  143.0784  160.1752 Cl      1  UNL1       -0.0814
     33 C         142.7469  143.6385  162.5721 C.ar    1  UNL1        0.0712
     34 CL        144.0345  144.3558  162.8510 Cl      1  UNL1       -0.0813
     35 C         141.6875  143.5599  163.6312 C.ar    1  UNL1        0.0491
@<TRIPOS>BOND
     1     5     6    2
     2     6     7   am
     3     7     4    1
     4     4     1    1
     5     1     2    1
     6     1    20    1
     7    20    21    1
     8    21    22    1
     9    22    23    1
    10    23    24    1
    11    24    27    1
    12    27    28    1
    13    28    29   ar
    14    29    30   ar
    15    30    31   ar
    16    31    32    1
    17    31    33   ar
    18    33    34    1
    19    33    35   ar
    20    24    25    1
    21    25    26    1
    22     6     9    1
    23     9    10    1
    24    10    11    1
    25    11    12    2
    26    11    13    1
    27    13    14    2
    28    14    15   ar
    29    15    16   ar
    30    16    17   ar
    31    17    18   ar
    32    18    19   ar
    33    26    21    1
    34    19     9    2
    35    35    28   ar
    36    19    14   ar
    37     7     8    1
    38     2     3    1
@<TRIPOS>MOLECULE
*****
 35 38 0 0 0
SMALL
GASTEIGER

@<TRIPOS>ATOM
      1 C         142.5265  138.3396  159.0591 C.3     1  UNL1        0.1459
      2 O         143.3922  138.3360  157.8342 O.3     1  UNL1       -0.3813
      3 H         142.9500  138.8275  157.1243 H       1  UNL1        0.2105
      4 C         141.2005  139.0406  159.0383 C.3     1  UNL1        0.1204
      5 O         138.2591  139.2886  159.5738 O.2     1  UNL1       -0.2705
      6 C         139.2483  139.8947  160.5247 C.2     1  UNL1        0.2424
      7 N         140.7189  139.7706  160.2570 N.am    1  UNL1       -0.2987
      8 H         141.3682  140.1684  160.8811 H       1  UNL1        0.1498
      9 C         138.7667  140.6247  161.7434 C.2     1  UNL1        0.0416
     10 C         138.3857  142.0724  161.6487 C.3     1  UNL1        0.1180
     11 C         137.9042  142.8024  162.8674 C.2     1  UNL1        0.2501
     12 O         137.5231  144.2502  162.7727 O.2     1  UNL1       -0.2726
     13 N         137.8037  142.0848  164.1807 N.am    1  UNL1       -0.1789
     14 C         138.1847  140.6371  164.2755 C.ar    1  UNL1        0.0732
     15 C         138.0843  139.9195  165.5888 C.ar    1  UNL1        0.0166
     16 C         138.4653  138.4718  165.6835 C.ar    1  UNL1        0.0013
     17 C         138.9469  137.7418  164.4648 C.ar    1  UNL1        0.0001
     18 C         139.0473  138.4594  163.1515 C.ar    1  UNL1        0.0011
     19 C         138.6663  139.9070  163.0568 C.ar    1  UNL1        0.0162
     20 C         142.9867  137.6422  160.3048 C.3     1  UNL1        0.1034
     21 N         143.1903  138.4225  161.5695 N.3     1  UNL1       -0.2704
     22 C         144.0802  139.6301  161.5708 C.3     1  UNL1        0.0759
     23 C         144.2837  140.4104  162.8355 C.3     1  UNL1        0.0609
     24 C         143.5974  139.9832  164.0991 C.3     1  UNL1        0.1687
     25 C         142.7075  138.7757  164.0978 C.3     1  UNL1        0.0609
     26 C         142.5039  137.9954  162.8330 C.3     1  UNL1        0.0759
     27 O         143.8009  140.7636  165.3638 O.3     1  UNL1       -0.4790
     28 C         142.7147  140.8139  166.3971 C.ar    1  UNL1        0.1393
     29 C         141.5275  141.7079  166.1944 C.ar    1  UNL1        0.0378
     30 C         140.4413  141.7582  167.2276 C.ar    1  UNL1        0.0154
     31 C         140.5424  140.9145  168.4637 C.ar    1  UNL1        0.0684
     32 CL        139.4562  140.9648  169.4970 Cl      1  UNL1       -0.0814
     33 C         141.7296  140.0205  168.6665 C.ar    1  UNL1        0.0712
     34 CL        141.8307  139.1767  169.9026 Cl      1  UNL1       -0.0813
     35 C         142.8158  139.9702  167.6332 C.ar    1  UNL1        0.0491
@<TRIPOS>BOND
     1     5     6    2
     2     6     7   am
     3     7     4    1
     4     4     1    1
     5     1     2    1
     6     1    20    1
     7    20    21    1
     8    21    22    1
     9    22    23    1
    10    23    24    1
    11    24    27    1
    12    27    28    1
    13    28    29   ar
    14    29    30   ar
    15    30    31   ar
    16    31    32    1
    17    31    33   ar
    18    33    34    1
    19    33    35   ar
    20    24    25    1
    21    25    26    1
    22     6     9    1
    23     9    10    1
    24    10    11    1
    25    11    12    2
    26    11    13    1
    27    13    14    2
    28    14    15   ar
    29    15    16   ar
    30    16    17   ar
    31    17    18   ar
    32    18    19   ar
    33    26    21    1
    34    19     9    2
    35    35    28   ar
    36    19    14   ar
    37     7     8    1
    38     2     3    1
@<TRIPOS>MOLECULE
*****
 35 38 0 0 0
SMALL
GASTEIGER

@<TRIPOS>ATOM
      1 C         140.4044  140.0174  169.7683 C.3     1  UNL1        0.1459
      2 O         140.1233  140.2698  171.2200 O.3     1  UNL1       -0.3813
      3 H         139.1812  140.4690  171.3370 H       1  UNL1        0.2105
      4 C         139.2928  140.0970  168.7642 C.3     1  UNL1        0.1204
      5 O         137.4612  138.8431  166.7460 O.2     1  UNL1       -0.2705
      6 C         138.6935  139.5682  166.2922 C.2     1  UNL1        0.2424
      7 N         139.6092  140.1951  167.3013 N.am    1  UNL1       -0.2987
      8 H         140.4179  140.6710  167.0034 H       1  UNL1        0.1498
      9 C         139.0099  139.6664  164.8292 C.2     1  UNL1        0.0416
     10 C         139.6480  138.5086  164.1206 C.3     1  UNL1        0.1180
     11 C         139.9645  138.6067  162.6576 C.2     1  UNL1        0.2501
     12 O         140.6026  137.4489  161.9490 O.2     1  UNL1       -0.2726
     13 N         139.6427  139.8627  161.9033 N.am    1  UNL1       -0.1789
     14 C         139.0046  141.0206  162.6120 C.ar    1  UNL1        0.0732
     15 C         138.6828  142.2765  161.8576 C.ar    1  UNL1        0.0166
     16 C         138.0447  143.4343  162.5663 C.ar    1  UNL1        0.0013
     17 C         137.7283  143.3362  164.0292 C.ar    1  UNL1        0.0001
     18 C         138.0500  142.0802  164.7836 C.ar    1  UNL1        0.0011
     19 C         138.6881  140.9224  164.0749 C.ar    1  UNL1        0.0162
     20 C         141.7970  139.6854  169.3207 C.3     1  UNL1        0.1034
     21 N         142.3827  140.3703  168.1217 N.3     1  UNL1       -0.2704
     22 C         142.6378  139.5934  166.8642 C.3     1  UNL1        0.0759
     23 C         143.2235  140.2783  165.6651 C.3     1  UNL1        0.0609
     24 C         143.5541  141.7403  165.7235 C.3     1  UNL1        0.1687
     25 C         143.2990  142.5173  166.9810 C.3     1  UNL1        0.0609
     26 C         142.7133  141.8323  168.1801 C.3     1  UNL1        0.0759
     27 O         144.1398  142.4253  164.5245 O.3     1  UNL1       -0.4790
     28 C         143.2506  143.1877  163.5875 C.ar    1  UNL1        0.1393
     29 C         142.4684  144.3657  164.0877 C.ar    1  UNL1        0.0378
     30 C         141.5792  145.1282  163.1507 C.ar    1  UNL1        0.0154
     31 C         141.4723  144.7127  161.7134 C.ar    1  UNL1        0.0684
     32 CL        140.5831  145.4751  160.7764 Cl      1  UNL1       -0.0814
     33 C         142.2546  143.5347  161.2131 C.ar    1  UNL1        0.0712
     34 CL        142.1477  143.1191  159.7758 Cl      1  UNL1       -0.0813
     35 C         143.1438  142.7722  162.1502 C.ar    1  UNL1        0.0491
@<TRIPOS>BOND
     1     5     6    2
     2     6     7   am
     3     7     4    1
     4     4     1    1
     5     1     2    1
     6     1    20    1
     7    20    21    1
     8    21    22    1
     9    22    23    1
    10    23    24    1
    11    24    27    1
    12    27    28    1
    13    28    29   ar
    14    29    30   ar
    15    30    31   ar
    16    31    32    1
    17    31    33   ar
    18    33    34    1
    19    33    35   ar
    20    24    25    1
    21    25    26    1
    22     6     9    1
    23     9    10    1
    24    10    11    1
    25    11    12    2
    26    11    13    1
    27    13    14    2
    28    14    15   ar
    29    15    16   ar
    30    16    17   ar
    31    17    18   ar
    32    18    19   ar
    33    26    21    1
    34    19     9    2
    35    35    28   ar
    36    19    14   ar
    37     7     8    1
    38     2     3    1
@<TRIPOS>MOLECULE
*****
 35 38 0 0 0
SMALL
GASTEIGER

@<TRIPOS>ATOM
      1 C         139.7201  145.4895  161.9062 C.3     1  UNL1        0.1459
      2 O         140.4349  146.6957  162.4392 O.3     1  UNL1       -0.3813
      3 H         141.1571  146.9356  161.8378 H       1  UNL1        0.2105
      4 C         140.1697  144.8578  160.6221 C.3     1  UNL1        0.1204
      5 O         143.0768  144.5119  161.2774 O.2     1  UNL1       -0.2705
      6 C         142.2315  143.3138  160.9611 C.2     1  UNL1        0.2424
      7 N         140.7780  143.4867  160.6334 N.am    1  UNL1       -0.2987
      8 H         140.2232  142.7004  160.4259 H       1  UNL1        0.1498
      9 C         142.8398  141.9427  160.9725 C.2     1  UNL1        0.0416
     10 C         142.8771  141.1283  159.7134 C.3     1  UNL1        0.1180
     11 C         143.4854  139.7572  159.7248 C.2     1  UNL1        0.2501
     12 O         143.5227  138.9428  158.4656 O.2     1  UNL1       -0.2726
     13 N         144.0563  139.2005  160.9952 N.am    1  UNL1       -0.1789
     14 C         144.0190  140.0149  162.2544 C.ar    1  UNL1        0.0732
     15 C         144.5900  139.4583  163.5248 C.ar    1  UNL1        0.0166
     16 C         144.5527  140.2727  164.7839 C.ar    1  UNL1        0.0013
     17 C         143.9444  141.6438  164.7725 C.ar    1  UNL1        0.0001
     18 C         143.3734  142.2004  163.5021 C.ar    1  UNL1        0.0011
     19 C         143.4108  141.3860  162.2430 C.ar    1  UNL1        0.0162
     20 C         138.5556  144.9150  162.6572 C.3     1  UNL1        0.1034
     21 N         138.7194  143.6440  163.4368 N.3     1  UNL1       -0.2704
     22 C         137.7464  142.5181  163.2487 C.3     1  UNL1        0.0759
     23 C         137.9101  141.2472  164.0284 C.3     1  UNL1        0.0609
     24 C         139.0470  141.1021  164.9962 C.3     1  UNL1        0.1687
     25 C         140.0201  142.2281  165.1843 C.3     1  UNL1        0.0609
     26 C         139.8562  143.4991  164.4045 C.3     1  UNL1        0.0759
     27 O         139.2108  139.8312  165.7758 O.3     1  UNL1       -0.4790
     28 C         140.1529  139.7829  166.9420 C.ar    1  UNL1        0.1393
     29 C         141.6066  139.4874  166.7201 C.ar    1  UNL1        0.0378
     30 C         142.5487  139.4390  167.8863 C.ar    1  UNL1        0.0154
     31 C         142.0371  139.6861  169.2745 C.ar    1  UNL1        0.0684
     32 CL        142.9792  139.6378  170.4407 Cl      1  UNL1       -0.0814
     33 C         140.5834  139.9817  169.4965 C.ar    1  UNL1        0.0712
     34 CL        140.0717  140.2288  170.8847 Cl      1  UNL1       -0.0813
     35 C         139.6413  140.0300  168.3302 C.ar    1  UNL1        0.0491
@<TRIPOS>BOND
     1     5     6    2
     2     6     7   am
     3     7     4    1
     4     4     1    1
     5     1     2    1
     6     1    20    1
     7    20    21    1
     8    21    22    1
     9    22    23    1
    10    23    24    1
    11    24    27    1
    12    27    28    1
    13    28    29   ar
    14    29    30   ar
    15    30    31   ar
    16    31    32    1
    17    31    33   ar
    18    33    34    1
    19    33    35   ar
    20    24    25    1
    21    25    26    1
    22     6     9    1
    23     9    10    1
    24    10    11    1
    25    11    12    2
    26    11    13    1
    27    13    14    2
    28    14    15   ar
    29    15    16   ar
    30    16    17   ar
    31    17    18   ar
    32    18    19   ar
    33    26    21    1
    34    19     9    2
    35    35    28   ar
    36    19    14   ar
    37     7     8    1
    38     2     3    1
@<TRIPOS>MOLECULE
*****
 35 38 0 0 0
SMALL
GASTEIGER

@<TRIPOS>ATOM
      1 C         143.7179  139.2676  161.0330 C.3     1  UNL1        0.1459
      2 O         144.8612  138.4107  160.5765 O.3     1  UNL1       -0.3813
      3 H         145.4732  138.9441  160.0456 H       1  UNL1        0.2105
      4 C         143.6655  140.7162  160.6469 C.3     1  UNL1        0.1204
      5 O         144.1686  143.1689  162.2996 O.2     1  UNL1       -0.2705
      6 C         142.7665  142.7961  161.9181 C.2     1  UNL1        0.2424
      7 N         142.5150  141.5698  161.0918 N.am    1  UNL1       -0.2987
      8 H         141.5949  141.3251  160.8414 H       1  UNL1        0.1498
      9 C         141.6161  143.6496  162.3630 C.2     1  UNL1        0.0416
     10 C         141.0203  144.6548  161.4224 C.3     1  UNL1        0.1180
     11 C         139.8698  145.5084  161.8673 C.2     1  UNL1        0.2501
     12 O         139.2740  146.5136  160.9267 O.2     1  UNL1       -0.2726
     13 N         139.3152  145.3568  163.2527 N.am    1  UNL1       -0.1789
     14 C         139.9110  144.3516  164.1933 C.ar    1  UNL1        0.0732
     15 C         139.3564  144.2000  165.5787 C.ar    1  UNL1        0.0166
     16 C         139.9522  143.1948  166.5192 C.ar    1  UNL1        0.0013
     17 C         141.1026  142.3413  166.0743 C.ar    1  UNL1        0.0001
     18 C         141.6573  142.4929  164.6890 C.ar    1  UNL1        0.0011
     19 C         141.0615  143.4980  163.7484 C.ar    1  UNL1        0.0162
     20 C         142.6270  138.6761  161.8756 C.3     1  UNL1        0.1034
     21 N         142.7065  138.7580  163.3712 N.3     1  UNL1       -0.2704
     22 C         144.0090  139.0924  164.0359 C.3     1  UNL1        0.0759
     23 C         144.0885  139.1743  165.5315 C.3     1  UNL1        0.0609
     24 C         142.8655  138.9219  166.3625 C.3     1  UNL1        0.1687
     25 C         141.5630  138.5875  165.6979 C.3     1  UNL1        0.0609
     26 C         141.4835  138.5056  164.2022 C.3     1  UNL1        0.0759
     27 O         142.9450  139.0038  167.8582 O.3     1  UNL1       -0.4790
     28 C         142.1255  140.0190  168.5983 C.ar    1  UNL1        0.1393
     29 C         140.6503  139.8100  168.7718 C.ar    1  UNL1        0.0378
     30 C         139.8309  140.8252  169.5120 C.ar    1  UNL1        0.0154
     31 C         140.4866  142.0495  170.0786 C.ar    1  UNL1        0.0684
     32 CL        139.6672  143.0647  170.8188 Cl      1  UNL1       -0.0814
     33 C         141.9618  142.2585  169.9051 C.ar    1  UNL1        0.0712
     34 CL        142.6176  143.4829  170.4718 Cl      1  UNL1       -0.0813
     35 C         142.7812  141.2433  169.1650 C.ar    1  UNL1        0.0491
@<TRIPOS>BOND
     1     5     6    2
     2     6     7   am
     3     7     4    1
     4     4     1    1
     5     1     2    1
     6     1    20    1
     7    20    21    1
     8    21    22    1
     9    22    23    1
    10    23    24    1
    11    24    27    1
    12    27    28    1
    13    28    29   ar
    14    29    30   ar
    15    30    31   ar
    16    31    32    1
    17    31    33   ar
    18    33    34    1
    19    33    35   ar
    20    24    25    1
    21    25    26    1
    22     6     9    1
    23     9    10    1
    24    10    11    1
    25    11    12    2
    26    11    13    1
    27    13    14    2
    28    14    15   ar
    29    15    16   ar
    30    16    17   ar
    31    17    18   ar
    32    18    19   ar
    33    26    21    1
    34    19     9    2
    35    35    28   ar
    36    19    14   ar
    37     7     8    1
    38     2     3    1
@<TRIPOS>MOLECULE
*****
 35 38 0 0 0
SMALL
GASTEIGER

@<TRIPOS>ATOM
      1 C         142.0368  139.8226  169.9900 C.3     1  UNL1        0.1459
      2 O         142.5963  140.1755  171.3363 O.3     1  UNL1       -0.3813
      3 H         143.5325  139.9246  171.3732 H       1  UNL1        0.2105
      4 C         142.9157  139.1817  168.9571 C.3     1  UNL1        0.1204
      5 O         144.4306  137.5781  166.9239 O.2     1  UNL1       -0.2705
      6 C         143.3265  138.4941  166.4856 C.2     1  UNL1        0.2424
      7 N         142.5691  139.2959  167.5022 N.am    1  UNL1       -0.2987
      8 H         141.8445  139.8970  167.2145 H       1  UNL1        0.1498
      9 C         142.9799  138.6083  165.0307 C.2     1  UNL1        0.0416
     10 C         141.8704  137.7780  164.4566 C.3     1  UNL1        0.1180
     11 C         141.5238  137.8921  163.0017 C.2     1  UNL1        0.2501
     12 O         140.4142  137.0617  162.4276 O.2     1  UNL1       -0.2726
     13 N         142.2866  138.8366  162.1208 N.am    1  UNL1       -0.1789
     14 C         143.3962  139.6669  162.6949 C.ar    1  UNL1        0.0732
     15 C         144.1591  140.6114  161.8140 C.ar    1  UNL1        0.0166
     16 C         145.2685  141.4417  162.3881 C.ar    1  UNL1        0.0013
     17 C         145.6152  141.3275  163.8430 C.ar    1  UNL1        0.0001
     18 C         144.8523  140.3831  164.7239 C.ar    1  UNL1        0.0011
     19 C         143.7428  139.5528  164.1498 C.ar    1  UNL1        0.0162
     20 C         140.5985  140.1106  169.6766 C.3     1  UNL1        0.1034
     21 N         140.2355  140.8226  168.4072 N.3     1  UNL1       -0.2704
     22 C         139.5104  140.0901  167.3174 C.3     1  UNL1        0.0759
     23 C         139.1474  140.8020  166.0481 C.3     1  UNL1        0.0609
     24 C         139.5096  142.2466  165.8684 C.3     1  UNL1        0.1687
     25 C         140.2347  142.9791  166.9582 C.3     1  UNL1        0.0609
     26 C         140.5976  142.2671  168.2276 C.3     1  UNL1        0.0759
     27 O         139.1466  142.9585  164.5991 O.3     1  UNL1       -0.4790
     28 C         140.1518  143.0775  163.4921 C.ar    1  UNL1        0.1393
     29 C         139.8868  142.4293  162.1656 C.ar    1  UNL1        0.0378
     30 C         140.8920  142.5482  161.0586 C.ar    1  UNL1        0.0154
     31 C         142.1622  143.3153  161.2781 C.ar    1  UNL1        0.0684
     32 CL        143.1673  143.4343  160.1711 Cl      1  UNL1       -0.0814
     33 C         142.4271  143.9635  162.6046 C.ar    1  UNL1        0.0712
     34 CL        143.6973  144.7306  162.8241 Cl      1  UNL1       -0.0813
     35 C         141.4219  143.8445  163.7116 C.ar    1  UNL1        0.0491
@<TRIPOS>BOND
     1     5     6    2
     2     6     7   am
     3     7     4    1
     4     4     1    1
     5     1     2    1
     6     1    20    1
     7    20    21    1
     8    21    22    1
     9    22    23    1
    10    23    24    1
    11    24    27    1
    12    27    28    1
    13    28    29   ar
    14    29    30   ar
    15    30    31   ar
    16    31    32    1
    17    31    33   ar
    18    33    34    1
    19    33    35   ar
    20    24    25    1
    21    25    26    1
    22     6     9    1
    23     9    10    1
    24    10    11    1
    25    11    12    2
    26    11    13    1
    27    13    14    2
    28    14    15   ar
    29    15    16   ar
    30    16    17   ar
    31    17    18   ar
    32    18    19   ar
    33    26    21    1
    34    19     9    2
    35    35    28   ar
    36    19    14   ar
    37     7     8    1
    38     2     3    1
@<TRIPOS>MOLECULE
*****
 35 38 0 0 0
SMALL
GASTEIGER

@<TRIPOS>ATOM
      1 C         137.9886  139.4637  160.6842 C.3     1  UNL1        0.1459
      2 O         136.5611  139.8964  160.5261 O.3     1  UNL1       -0.3813
      3 H         136.5161  140.6431  159.9087 H       1  UNL1        0.2105
      4 C         139.0755  140.1756  159.9346 C.3     1  UNL1        0.1204
      5 O         139.2448  142.5228  161.7953 O.2     1  UNL1       -0.2705
      6 C         140.4555  141.6721  161.5490 C.2     1  UNL1        0.2424
      7 N         140.3708  140.4985  160.6187 N.am    1  UNL1       -0.2987
      8 H         141.1654  139.9401  160.4571 H       1  UNL1        0.1498
      9 C         141.7508  141.9950  162.2331 C.2     1  UNL1        0.0416
     10 C         142.3626  143.3556  162.0770 C.3     1  UNL1        0.1180
     11 C         143.6579  143.6785  162.7611 C.2     1  UNL1        0.2501
     12 O         144.2696  145.0392  162.6049 O.2     1  UNL1       -0.2726
     13 N         144.3414  142.6408  163.6012 N.am    1  UNL1       -0.1789
     14 C         143.7296  141.2800  163.7573 C.ar    1  UNL1        0.0732
     15 C         144.4131  140.2423  164.5974 C.ar    1  UNL1        0.0166
     16 C         143.8014  138.8817  164.7535 C.ar    1  UNL1        0.0013
     17 C         142.5061  138.5588  164.0694 C.ar    1  UNL1        0.0001
     18 C         141.8225  139.5965  163.2293 C.ar    1  UNL1        0.0011
     19 C         142.4343  140.9572  163.0732 C.ar    1  UNL1        0.0162
     20 C         138.3292  138.3191  161.5919 C.3     1  UNL1        0.1034
     21 N         138.4504  138.5444  163.0699 N.3     1  UNL1       -0.2704
     22 C         138.9213  137.4340  163.9617 C.3     1  UNL1        0.0759
     23 C         139.0424  137.6592  165.4397 C.3     1  UNL1        0.0609
     24 C         138.6927  138.9949  166.0260 C.3     1  UNL1        0.1687
     25 C         138.2218  140.1053  165.1342 C.3     1  UNL1        0.0609
     26 C         138.1006  139.8800  163.6561 C.3     1  UNL1        0.0759
     27 O         138.8138  139.2202  167.5040 O.3     1  UNL1       -0.4790
     28 C         140.0259  139.9059  168.0613 C.ar    1  UNL1        0.1393
     29 C         141.3039  139.9257  167.2761 C.ar    1  UNL1        0.0378
     30 C         142.5160  140.6114  167.8334 C.ar    1  UNL1        0.0154
     31 C         142.4502  141.2773  169.1759 C.ar    1  UNL1        0.0684
     32 CL        143.6623  141.9630  169.7332 Cl      1  UNL1       -0.0814
     33 C         141.1723  141.2575  169.9610 C.ar    1  UNL1        0.0712
     34 CL        141.1064  141.9234  171.3036 Cl      1  UNL1       -0.0813
     35 C         139.9602  140.5718  169.4037 C.ar    1  UNL1        0.0491
@<TRIPOS>BOND
     1     5     6    2
     2     6     7   am
     3     7     4    1
     4     4     1    1
     5     1     2    1
     6     1    20    1
     7    20    21    1
     8    21    22    1
     9    22    23    1
    10    23    24    1
    11    24    27    1
    12    27    28    1
    13    28    29   ar
    14    29    30   ar
    15    30    31   ar
    16    31    32    1
    17    31    33   ar
    18    33    34    1
    19    33    35   ar
    20    24    25    1
    21    25    26    1
    22     6     9    1
    23     9    10    1
    24    10    11    1
    25    11    12    2
    26    11    13    1
    27    13    14    2
    28    14    15   ar
    29    15    16   ar
    30    16    17   ar
    31    17    18   ar
    32    18    19   ar
    33    26    21    1
    34    19     9    2
    35    35    28   ar
    36    19    14   ar
    37     7     8    1
    38     2     3    1
@<TRIPOS>MOLECULE
*****
 35 38 0 0 0
SMALL
GASTEIGER

@<TRIPOS>ATOM
      1 C         140.4251  140.0324  169.7882 C.3     1  UNL1        0.1459
      2 O         140.4146  139.2435  171.0639 O.3     1  UNL1       -0.3813
      3 H         139.5615  138.7916  171.1576 H       1  UNL1        0.2105
      4 C         139.2216  140.0265  168.8929 C.3     1  UNL1        0.1204
      5 O         137.4398  138.6646  166.9003 O.2     1  UNL1       -0.2705
      6 C         138.4835  139.6352  166.4328 C.2     1  UNL1        0.2424
      7 N         139.3744  140.3162  167.4290 N.am    1  UNL1       -0.2987
      8 H         140.0594  140.9532  167.1222 H       1  UNL1        0.1498
      9 C         138.6364  139.9248  164.9689 C.2     1  UNL1        0.0416
     10 C         137.8864  141.0657  164.3478 C.3     1  UNL1        0.1180
     11 C         138.0392  141.3553  162.8840 C.2     1  UNL1        0.2501
     12 O         137.2892  142.4963  162.2629 O.2     1  UNL1       -0.2726
     13 N         138.9420  140.5040  162.0413 N.am    1  UNL1       -0.1789
     14 C         139.6921  139.3630  162.6624 C.ar    1  UNL1        0.0732
     15 C         140.5949  138.5118  161.8197 C.ar    1  UNL1        0.0166
     16 C         141.3448  137.3708  162.4408 C.ar    1  UNL1        0.0013
     17 C         141.1920  137.0812  163.9046 C.ar    1  UNL1        0.0001
     18 C         140.2892  137.9325  164.7473 C.ar    1  UNL1        0.0011
     19 C         139.5392  139.0734  164.1262 C.ar    1  UNL1        0.0162
     20 C         141.6390  140.8272  169.4078 C.3     1  UNL1        0.1034
     21 N         142.3193  140.5752  168.0949 N.3     1  UNL1       -0.2704
     22 C         142.6781  139.1754  167.6926 C.3     1  UNL1        0.0759
     23 C         143.3584  138.9234  166.3798 C.3     1  UNL1        0.0609
     24 C         143.6800  140.0712  165.4692 C.3     1  UNL1        0.1687
     25 C         143.3212  141.4710  165.8715 C.3     1  UNL1        0.0609
     26 C         142.6408  141.7230  167.1844 C.3     1  UNL1        0.0759
     27 O         144.3603  139.8192  164.1563 O.3     1  UNL1       -0.4790
     28 C         143.7535  140.3363  162.8857 C.ar    1  UNL1        0.1393
     29 C         144.1213  139.7140  161.5714 C.ar    1  UNL1        0.0378
     30 C         143.5145  140.2310  160.3008 C.ar    1  UNL1        0.0154
     31 C         142.5399  141.3704  160.3445 C.ar    1  UNL1        0.0684
     32 CL        141.9331  141.8875  159.0739 Cl      1  UNL1       -0.0814
     33 C         142.1722  141.9927  161.6588 C.ar    1  UNL1        0.0712
     34 CL        141.1976  143.1322  161.7025 Cl      1  UNL1       -0.0813
     35 C         142.7790  141.4757  162.9294 C.ar    1  UNL1        0.0491
@<TRIPOS>BOND
     1     5     6    2
     2     6     7   am
     3     7     4    1
     4     4     1    1
     5     1     2    1
     6     1    20    1
     7    20    21    1
     8    21    22    1
     9    22    23    1
    10    23    24    1
    11    24    27    1
    12    27    28    1
    13    28    29   ar
    14    29    30   ar
    15    30    31   ar
    16    31    32    1
    17    31    33   ar
    18    33    34    1
    19    33    35   ar
    20    24    25    1
    21    25    26    1
    22     6     9    1
    23     9    10    1
    24    10    11    1
    25    11    12    2
    26    11    13    1
    27    13    14    2
    28    14    15   ar
    29    15    16   ar
    30    16    17   ar
    31    17    18   ar
    32    18    19   ar
    33    26    21    1
    34    19     9    2
    35    35    28   ar
    36    19    14   ar
    37     7     8    1
    38     2     3    1
@<TRIPOS>MOLECULE
*****
 35 38 0 0 0
SMALL
GASTEIGER

@<TRIPOS>ATOM
      1 C         141.8968  145.1157  158.4212 C.3     1  UNL1        0.1459
      2 O         142.5607  146.2808  157.7492 O.3     1  UNL1       -0.3813
      3 H         143.5179  146.1287  157.7094 H       1  UNL1        0.2105
      4 C         142.7211  143.9602  158.9065 C.3     1  UNL1        0.1204
      5 O         145.0820  142.5451  160.0996 O.2     1  UNL1       -0.2705
      6 C         143.9018  142.8905  160.9587 C.2     1  UNL1        0.2424
      7 N         142.7214  143.5981  160.3621 N.am    1  UNL1       -0.2987
      8 H         141.9469  143.8248  160.9259 H       1  UNL1        0.1498
      9 C         143.9022  142.5284  162.4143 C.2     1  UNL1        0.0416
     10 C         144.3973  143.5128  163.4320 C.3     1  UNL1        0.1180
     11 C         144.3976  143.1507  164.8876 C.2     1  UNL1        0.2501
     12 O         144.8928  144.1352  165.9053 O.2     1  UNL1       -0.2726
     13 N         143.9028  141.8041  165.3256 N.am    1  UNL1       -0.1789
     14 C         143.4076  140.8196  164.3079 C.ar    1  UNL1        0.0732
     15 C         142.9127  139.4731  164.7458 C.ar    1  UNL1        0.0166
     16 C         142.4175  138.4887  163.7282 C.ar    1  UNL1        0.0013
     17 C         142.4172  138.8508  162.2725 C.ar    1  UNL1        0.0001
     18 C         142.9121  140.1974  161.8346 C.ar    1  UNL1        0.0011
     19 C         143.4073  141.1818  162.8522 C.ar    1  UNL1        0.0162
     20 C         140.4085  145.1060  158.6080 C.3     1  UNL1        0.1034
     21 N         139.8233  144.7856  159.9515 N.3     1  UNL1       -0.2704
     22 C         139.8648  145.8058  161.0503 C.3     1  UNL1        0.0759
     23 C         139.2797  145.4854  162.3937 C.3     1  UNL1        0.0609
     24 C         138.6529  144.1447  162.6384 C.3     1  UNL1        0.1687
     25 C         138.6114  143.1244  161.5396 C.3     1  UNL1        0.0609
     26 C         139.1966  143.4449  160.1961 C.3     1  UNL1        0.0759
     27 O         138.0678  143.8242  163.9818 O.3     1  UNL1       -0.4790
     28 C         138.7640  142.8559  164.8915 C.ar    1  UNL1        0.1393
     29 C         139.8844  143.3259  165.7710 C.ar    1  UNL1        0.0378
     30 C         140.5807  142.3575  166.6807 C.ar    1  UNL1        0.0154
     31 C         140.1564  140.9191  166.7109 C.ar    1  UNL1        0.0684
     32 CL        140.8526  139.9508  167.6206 Cl      1  UNL1       -0.0814
     33 C         139.0359  140.4491  165.8314 C.ar    1  UNL1        0.0712
     34 CL        138.6116  139.0106  165.8616 Cl      1  UNL1       -0.0813
     35 C         138.3397  141.4175  164.9217 C.ar    1  UNL1        0.0491
@<TRIPOS>BOND
     1     5     6    2
     2     6     7   am
     3     7     4    1
     4     4     1    1
     5     1     2    1
     6     1    20    1
     7    20    21    1
     8    21    22    1
     9    22    23    1
    10    23    24    1
    11    24    27    1
    12    27    28    1
    13    28    29   ar
    14    29    30   ar
    15    30    31   ar
    16    31    32    1
    17    31    33   ar
    18    33    34    1
    19    33    35   ar
    20    24    25    1
    21    25    26    1
    22     6     9    1
    23     9    10    1
    24    10    11    1
    25    11    12    2
    26    11    13    1
    27    13    14    2
    28    14    15   ar
    29    15    16   ar
    30    16    17   ar
    31    17    18   ar
    32    18    19   ar
    33    26    21    1
    34    19     9    2
    35    35    28   ar
    36    19    14   ar
    37     7     8    1
    38     2     3    1
