@<TRIPOS>MOLECULE
*****
 31 32 0 0 0
SMALL
GASTEIGER

@<TRIPOS>ATOM
      1 N         144.1777  141.3064  161.9073 N.3     1  UNL1       -0.2689
      2 C         145.0939  141.5109  163.0772 C.3     1  UNL1        0.0897
      3 C         144.9338  140.6725  164.3107 C.3     1  UNL1        0.0900
      4 N         143.8575  139.6297  164.3743 N.3     1  UNL1       -0.2626
      5 C         142.9414  139.4252  163.2044 C.3     1  UNL1        0.0900
      6 C         143.1014  140.2635  161.9709 C.3     1  UNL1        0.0897
      7 C         144.3378  142.1447  160.6738 C.3     1  UNL1        0.0937
      8 C         143.3408  143.2219  160.3645 C.3     1  UNL1        0.1082
      9 N         141.1481  144.8769  163.2285 N.am    1  UNL1       -0.2921
     10 C         141.5928  143.9345  162.1497 C.2     1  UNL1        0.3007
     11 O         140.7345  142.7621  161.7772 O.2     1  UNL1       -0.2528
     12 N         142.8961  144.1644  161.4433 N.am    1  UNL1       -0.2875
     13 H         141.7114  145.6464  163.4730 H       1  UNL1        0.1508
     14 H         143.4594  144.9338  161.6879 H       1  UNL1        0.1510
     15 C         139.1283  145.4111  162.8613 C.3     1  UNL1        0.0197
     16 C         139.8449  144.6471  163.9349 C.3     1  UNL1        0.0583
     17 C         140.5616  143.8830  165.0084 C.3     1  UNL1        0.0197
     18 C         138.5417  144.4171  164.6413 C.3     1  UNL1        0.0197
     19 C         143.6975  138.7913  165.6078 C.3     1  UNL1        0.1588
     20 C         142.9223  139.3196  166.7783 C.2     1  UNL1        0.2425
     21 O         143.1781  138.7778  168.1535 O.2     1  UNL1       -0.2733
     22 N         141.8913  140.3897  166.5737 N.am    1  UNL1       -0.2827
     23 H         141.7233  140.7453  165.6711 H       1  UNL1        0.1549
     24 C         141.1161  140.9180  167.7442 C.ar    1  UNL1        0.0520
     25 C         141.4328  142.2733  168.3034 C.ar    1  UNL1        0.0261
     26 C         140.6576  142.8015  169.4740 C.ar    1  UNL1        0.0597
     27 CL        140.9744  144.1568  170.0332 Cl      1  UNL1       -0.0822
     28 C         139.5657  141.9744  170.0852 C.ar    1  UNL1        0.0229
     29 C         139.2490  140.6190  169.5260 C.ar    1  UNL1        0.0597
     30 CL        138.1571  139.7919  170.1372 Cl      1  UNL1       -0.0822
     31 C         140.0242  140.0908  168.3555 C.ar    1  UNL1        0.0261
@<TRIPOS>BOND
     1    15    16    1
     2    16    17    1
     3    16    18    1
     4    16     9    1
     5     9    10   am
     6    10    11    2
     7    10    12   am
     8    12     8    1
     9     8     7    1
    10     7     1    1
    11     1     2    1
    12     2     3    1
    13     3     4    1
    14     4    19    1
    15    19    20    1
    16    20    21    2
    17    20    22   am
    18    22    24    1
    19    24    25   ar
    20    25    26   ar
    21    26    27    1
    22    26    28   ar
    23    28    29   ar
    24    29    30    1
    25    29    31   ar
    26     4     5    1
    27     5     6    1
    28     6     1    1
    29    31    24   ar
    30     9    13    1
    31    12    14    1
    32    22    23    1
@<TRIPOS>MOLECULE
*****
 31 32 0 0 0
SMALL
GASTEIGER

@<TRIPOS>ATOM
      1 N         144.3188  141.7581  160.5067 N.3     1  UNL1       -0.2689
      2 C         144.9952  142.4133  161.6743 C.3     1  UNL1        0.0897
      3 C         145.1882  141.6528  162.9527 C.3     1  UNL1        0.0900
      4 N         144.7048  140.2372  163.0636 N.3     1  UNL1       -0.2626
      5 C         144.0285  139.5820  161.8960 C.3     1  UNL1        0.0900
      6 C         143.8355  140.3425  160.6175 C.3     1  UNL1        0.0897
      7 C         144.1258  142.5186  159.2282 C.3     1  UNL1        0.0937
      8 C         142.8382  143.2449  158.9747 C.3     1  UNL1        0.1082
      9 N         141.2441  145.3092  161.9660 N.am    1  UNL1       -0.2921
     10 C         141.6394  144.1559  161.0921 C.2     1  UNL1        0.3007
     11 O         141.2314  142.7606  161.4614 O.2     1  UNL1       -0.2528
     12 N         142.4429  144.3981  159.8487 N.am    1  UNL1       -0.2875
     13 H         141.5120  146.2250  161.7236 H       1  UNL1        0.1508
     14 H         142.7107  145.3140  159.6062 H       1  UNL1        0.1510
     15 C         139.1741  145.2337  162.4234 C.3     1  UNL1        0.0197
     16 C         140.4408  145.0670  163.2094 C.3     1  UNL1        0.0583
     17 C         141.7074  144.9004  163.9953 C.3     1  UNL1        0.0197
     18 C         139.6374  144.8249  164.4528 C.3     1  UNL1        0.0197
     19 C         144.8978  139.4767  164.3420 C.3     1  UNL1        0.1588
     20 C         143.7520  139.3092  165.2953 C.2     1  UNL1        0.2425
     21 O         143.5656  138.0110  166.0234 O.2     1  UNL1       -0.2733
     22 N         142.7924  140.4399  165.5207 N.am    1  UNL1       -0.2827
     23 H         142.9147  141.2920  165.0430 H       1  UNL1        0.1549
     24 C         141.6465  140.2724  166.4741 C.ar    1  UNL1        0.0520
     25 C         141.8188  140.6218  167.9226 C.ar    1  UNL1        0.0261
     26 C         140.6729  140.4542  168.8760 C.ar    1  UNL1        0.0597
     27 CL        140.8452  140.8036  170.3246 Cl      1  UNL1       -0.0822
     28 C         139.3547  139.9373  168.3809 C.ar    1  UNL1        0.0229
     29 C         139.1825  139.5880  166.9323 C.ar    1  UNL1        0.0597
     30 CL        137.8643  139.0711  166.4371 Cl      1  UNL1       -0.0822
     31 C         140.3283  139.7555  165.9790 C.ar    1  UNL1        0.0261
@<TRIPOS>BOND
     1    15    16    1
     2    16    17    1
     3    16    18    1
     4    16     9    1
     5     9    10   am
     6    10    11    2
     7    10    12   am
     8    12     8    1
     9     8     7    1
    10     7     1    1
    11     1     2    1
    12     2     3    1
    13     3     4    1
    14     4    19    1
    15    19    20    1
    16    20    21    2
    17    20    22   am
    18    22    24    1
    19    24    25   ar
    20    25    26   ar
    21    26    27    1
    22    26    28   ar
    23    28    29   ar
    24    29    30    1
    25    29    31   ar
    26     4     5    1
    27     5     6    1
    28     6     1    1
    29    31    24   ar
    30     9    13    1
    31    12    14    1
    32    22    23    1
@<TRIPOS>MOLECULE
*****
 31 32 0 0 0
SMALL
GASTEIGER

@<TRIPOS>ATOM
      1 N         144.2741  141.8984  160.2154 N.3     1  UNL1       -0.2689
      2 C         144.9581  142.5539  161.3783 C.3     1  UNL1        0.0897
      3 C         145.1920  141.7823  162.6432 C.3     1  UNL1        0.0900
      4 N         144.7419  140.3551  162.7451 N.3     1  UNL1       -0.2626
      5 C         144.0579  139.6995  161.5823 C.3     1  UNL1        0.0900
      6 C         143.8240  140.4712  160.3174 C.3     1  UNL1        0.0897
      7 C         144.0402  142.6700  158.9506 C.3     1  UNL1        0.0937
      8 C         142.7503  143.4089  158.7504 C.3     1  UNL1        0.1082
      9 N         141.2827  145.3596  161.8795 N.am    1  UNL1       -0.2921
     10 C         141.6556  144.2380  160.9560 C.2     1  UNL1        0.3007
     11 O         141.3070  142.8238  161.3145 O.2     1  UNL1       -0.2528
     12 N         142.3773  144.5305  159.6739 N.am    1  UNL1       -0.2875
     13 H         141.5115  146.2878  161.6441 H       1  UNL1        0.1508
     14 H         142.6062  145.4587  159.4386 H       1  UNL1        0.1510
     15 C         141.8757  144.9366  163.8717 C.3     1  UNL1        0.0197
     16 C         140.5610  145.0671  163.1615 C.3     1  UNL1        0.0583
     17 C         139.2463  145.1976  162.4513 C.3     1  UNL1        0.0197
     18 C         139.8393  144.7746  164.4436 C.3     1  UNL1        0.0197
     19 C         144.9758  139.5834  164.0100 C.3     1  UNL1        0.1588
     20 C         143.8731  139.4418  165.0169 C.2     1  UNL1        0.2425
     21 O         143.8537  138.2655  165.9475 O.2     1  UNL1       -0.2733
     22 N         142.7898  140.4765  165.0934 N.am    1  UNL1       -0.2827
     23 H         142.8025  141.2486  164.4826 H       1  UNL1        0.1549
     24 C         141.6871  140.3348  166.1004 C.ar    1  UNL1        0.0520
     25 C         140.3900  139.6926  165.7068 C.ar    1  UNL1        0.0261
     26 C         139.2872  139.5509  166.7138 C.ar    1  UNL1        0.0597
     27 CL        137.9901  138.9087  166.3203 Cl      1  UNL1       -0.0822
     28 C         139.4817  140.0515  168.1144 C.ar    1  UNL1        0.0229
     29 C         140.7789  140.6938  168.5079 C.ar    1  UNL1        0.0597
     30 CL        140.9734  141.1944  169.9085 Cl      1  UNL1       -0.0822
     31 C         141.8816  140.8355  167.5010 C.ar    1  UNL1        0.0261
@<TRIPOS>BOND
     1    15    16    1
     2    16    17    1
     3    16    18    1
     4    16     9    1
     5     9    10   am
     6    10    11    2
     7    10    12   am
     8    12     8    1
     9     8     7    1
    10     7     1    1
    11     1     2    1
    12     2     3    1
    13     3     4    1
    14     4    19    1
    15    19    20    1
    16    20    21    2
    17    20    22   am
    18    22    24    1
    19    24    25   ar
    20    25    26   ar
    21    26    27    1
    22    26    28   ar
    23    28    29   ar
    24    29    30    1
    25    29    31   ar
    26     4     5    1
    27     5     6    1
    28     6     1    1
    29    31    24   ar
    30     9    13    1
    31    12    14    1
    32    22    23    1
@<TRIPOS>MOLECULE
*****
 31 32 0 0 0
SMALL
GASTEIGER

@<TRIPOS>ATOM
      1 N         140.0311  138.3881  161.6477 N.3     1  UNL1       -0.2689
      2 C         141.3303  139.1179  161.4757 C.3     1  UNL1        0.0897
      3 C         142.3317  139.1399  162.5922 C.3     1  UNL1        0.0900
      4 N         142.0339  138.4322  163.8808 N.3     1  UNL1       -0.2626
      5 C         140.7348  137.7024  164.0528 C.3     1  UNL1        0.0900
      6 C         139.7334  137.6804  162.9362 C.3     1  UNL1        0.0897
      7 C         139.0297  138.3661  160.5311 C.3     1  UNL1        0.0937
      8 C         138.0606  139.4996  160.3704 C.3     1  UNL1        0.1082
      9 N         137.4483  141.8618  163.5001 N.am    1  UNL1       -0.2921
     10 C         138.0914  141.2479  162.2920 C.2     1  UNL1        0.3007
     11 O         139.4085  141.7682  161.7975 O.2     1  UNL1       -0.2528
     12 N         137.4174  140.1135  161.5785 N.am    1  UNL1       -0.2875
     13 H         136.5839  141.5203  163.8247 H       1  UNL1        0.1508
     14 H         136.5530  139.7720  161.9030 H       1  UNL1        0.1510
     15 C         138.7508  142.0231  165.1666 C.3     1  UNL1        0.0197
     16 C         138.1222  142.9961  164.2137 C.3     1  UNL1        0.0583
     17 C         137.4936  143.9691  163.2607 C.3     1  UNL1        0.0197
     18 C         138.7962  144.1305  164.9272 C.3     1  UNL1        0.0197
     19 C         143.0354  138.4543  164.9973 C.3     1  UNL1        0.1588
     20 C         142.6573  139.0233  166.3327 C.2     1  UNL1        0.2425
     21 O         143.3590  138.5553  167.5732 O.2     1  UNL1       -0.2733
     22 N         141.5777  140.0603  166.4276 N.am    1  UNL1       -0.2827
     23 H         141.1172  140.3674  165.6135 H       1  UNL1        0.1549
     24 C         141.1997  140.6293  167.7631 C.ar    1  UNL1        0.0520
     25 C         139.9208  140.2071  168.4235 C.ar    1  UNL1        0.0261
     26 C         139.5428  140.7761  169.7590 C.ar    1  UNL1        0.0597
     27 CL        138.2640  140.3538  170.4193 Cl      1  UNL1       -0.0822
     28 C         140.4438  141.7674  170.4340 C.ar    1  UNL1        0.0229
     29 C         141.7227  142.1897  169.7735 C.ar    1  UNL1        0.0597
     30 CL        142.6236  143.1810  170.4485 Cl      1  UNL1       -0.0822
     31 C         142.1006  141.6207  168.4381 C.ar    1  UNL1        0.0261
@<TRIPOS>BOND
     1    15    16    1
     2    16    17    1
     3    16    18    1
     4    16     9    1
     5     9    10   am
     6    10    11    2
     7    10    12   am
     8    12     8    1
     9     8     7    1
    10     7     1    1
    11     1     2    1
    12     2     3    1
    13     3     4    1
    14     4    19    1
    15    19    20    1
    16    20    21    2
    17    20    22   am
    18    22    24    1
    19    24    25   ar
    20    25    26   ar
    21    26    27    1
    22    26    28   ar
    23    28    29   ar
    24    29    30    1
    25    29    31   ar
    26     4     5    1
    27     5     6    1
    28     6     1    1
    29    31    24   ar
    30     9    13    1
    31    12    14    1
    32    22    23    1
@<TRIPOS>MOLECULE
*****
 31 32 0 0 0
SMALL
GASTEIGER

@<TRIPOS>ATOM
      1 N         139.2968  142.6934  160.8382 N.3     1  UNL1       -0.2689
      2 C         140.1386  141.4686  161.0414 C.3     1  UNL1        0.0897
      3 C         139.7829  140.4839  162.1155 C.3     1  UNL1        0.0900
      4 N         138.5855  140.7239  162.9864 N.3     1  UNL1       -0.2626
      5 C         137.7438  141.9487  162.7832 C.3     1  UNL1        0.0900
      6 C         138.0994  142.9334  161.7091 C.3     1  UNL1        0.0897
      7 C         139.6525  143.6782  159.7640 C.3     1  UNL1        0.0937
      8 C         140.3038  144.9800  160.1259 C.3     1  UNL1        0.1082
      9 N         143.6120  144.6313  162.2902 N.am    1  UNL1       -0.2921
     10 C         142.1642  144.6001  161.8992 C.2     1  UNL1        0.3007
     11 O         141.1290  144.1577  162.8905 O.2     1  UNL1       -0.2528
     12 N         141.7516  145.0112  160.5169 N.am    1  UNL1       -0.2875
     13 H         144.2915  144.9216  161.6395 H       1  UNL1        0.1508
     14 H         142.4310  145.3016  159.8662 H       1  UNL1        0.1510
     15 C         143.6629  145.5823  164.1856 C.3     1  UNL1        0.0197
     16 C         144.0246  144.2201  163.6724 C.3     1  UNL1        0.0583
     17 C         144.3864  142.8579  163.1592 C.3     1  UNL1        0.0197
     18 C         144.4373  143.8089  165.0547 C.3     1  UNL1        0.0197
     19 C         138.2298  139.7391  164.0605 C.3     1  UNL1        0.1588
     20 C         138.7271  139.9444  165.4607 C.2     1  UNL1        0.2425
     21 O         138.0564  139.2438  166.6051 O.2     1  UNL1       -0.2733
     22 N         139.8950  140.8501  165.7166 N.am    1  UNL1       -0.2827
     23 H         140.3352  141.3099  164.9656 H       1  UNL1        0.1549
     24 C         140.3923  141.0553  167.1169 C.ar    1  UNL1        0.0520
     25 C         140.2216  142.3870  167.7858 C.ar    1  UNL1        0.0261
     26 C         140.7189  142.5922  169.1861 C.ar    1  UNL1        0.0597
     27 CL        140.5482  143.9239  169.8550 Cl      1  UNL1       -0.0822
     28 C         141.3868  141.4657  169.9174 C.ar    1  UNL1        0.0229
     29 C         141.5574  140.1339  169.2484 C.ar    1  UNL1        0.0597
     30 CL        142.2254  139.0074  169.9797 Cl      1  UNL1       -0.0822
     31 C         141.0602  139.9288  167.8482 C.ar    1  UNL1        0.0261
@<TRIPOS>BOND
     1    15    16    1
     2    16    17    1
     3    16    18    1
     4    16     9    1
     5     9    10   am
     6    10    11    2
     7    10    12   am
     8    12     8    1
     9     8     7    1
    10     7     1    1
    11     1     2    1
    12     2     3    1
    13     3     4    1
    14     4    19    1
    15    19    20    1
    16    20    21    2
    17    20    22   am
    18    22    24    1
    19    24    25   ar
    20    25    26   ar
    21    26    27    1
    22    26    28   ar
    23    28    29   ar
    24    29    30    1
    25    29    31   ar
    26     4     5    1
    27     5     6    1
    28     6     1    1
    29    31    24   ar
    30     9    13    1
    31    12    14    1
    32    22    23    1
@<TRIPOS>MOLECULE
*****
 31 32 0 0 0
SMALL
GASTEIGER

@<TRIPOS>ATOM
      1 N         139.1978  139.4068  160.0295 N.3     1  UNL1       -0.2689
      2 C         138.3212  138.8444  161.1089 C.3     1  UNL1        0.0897
      3 C         138.9352  138.1465  162.2862 C.3     1  UNL1        0.0900
      4 N         140.4258  138.0110  162.3841 N.3     1  UNL1       -0.2626
      5 C         141.3024  138.5734  161.3046 C.3     1  UNL1        0.0900
      6 C         140.6884  139.2712  160.1273 C.3     1  UNL1        0.0897
      7 C         138.5838  140.1046  158.8522 C.3     1  UNL1        0.0937
      8 C         138.7199  141.5913  158.7069 C.3     1  UNL1        0.1082
      9 N         137.8580  143.8303  161.8682 N.am    1  UNL1       -0.2921
     10 C         138.5990  142.9149  160.9393 C.2     1  UNL1        0.3007
     11 O         139.9601  142.4078  161.3136 O.2     1  UNL1       -0.2528
     12 N         137.9789  142.5067  159.6358 N.am    1  UNL1       -0.2875
     13 H         136.9647  144.1631  161.6225 H       1  UNL1        0.1508
     14 H         137.0855  142.8395  159.3901 H       1  UNL1        0.1510
     15 C         139.1794  145.3717  162.4830 C.3     1  UNL1        0.0197
     16 C         138.4781  144.2386  163.1716 C.3     1  UNL1        0.0583
     17 C         137.7767  143.1055  163.8602 C.3     1  UNL1        0.0197
     18 C         139.0982  144.6468  164.4750 C.3     1  UNL1        0.0197
     19 C         141.0398  137.3132  163.5613 C.3     1  UNL1        0.1588
     20 C         141.2756  138.0634  164.8386 C.2     1  UNL1        0.2425
     21 O         142.5145  137.8034  165.6434 O.2     1  UNL1       -0.2733
     22 N         140.2725  139.0736  165.3113 N.am    1  UNL1       -0.2827
     23 H         139.4594  139.2442  164.7831 H       1  UNL1        0.1549
     24 C         140.5084  139.8238  166.5886 C.ar    1  UNL1        0.0520
     25 C         141.7359  140.6716  166.7448 C.ar    1  UNL1        0.0261
     26 C         141.9718  141.4218  168.0222 C.ar    1  UNL1        0.0597
     27 CL        143.1993  142.2696  168.1784 Cl      1  UNL1       -0.0822
     28 C         140.9801  141.3242  169.1433 C.ar    1  UNL1        0.0229
     29 C         139.7525  140.4763  168.9871 C.ar    1  UNL1        0.0597
     30 CL        138.7608  140.3787  170.1083 Cl      1  UNL1       -0.0822
     31 C         139.5167  139.7262  167.7098 C.ar    1  UNL1        0.0261
@<TRIPOS>BOND
     1    15    16    1
     2    16    17    1
     3    16    18    1
     4    16     9    1
     5     9    10   am
     6    10    11    2
     7    10    12   am
     8    12     8    1
     9     8     7    1
    10     7     1    1
    11     1     2    1
    12     2     3    1
    13     3     4    1
    14     4    19    1
    15    19    20    1
    16    20    21    2
    17    20    22   am
    18    22    24    1
    19    24    25   ar
    20    25    26   ar
    21    26    27    1
    22    26    28   ar
    23    28    29   ar
    24    29    30    1
    25    29    31   ar
    26     4     5    1
    27     5     6    1
    28     6     1    1
    29    31    24   ar
    30     9    13    1
    31    12    14    1
    32    22    23    1
@<TRIPOS>MOLECULE
*****
 31 32 0 0 0
SMALL
GASTEIGER

@<TRIPOS>ATOM
      1 N         139.1910  139.4003  160.1085 N.3     1  UNL1       -0.2689
      2 C         138.3612  138.7341  161.1656 C.3     1  UNL1        0.0897
      3 C         139.0278  138.0551  162.3252 C.3     1  UNL1        0.0900
      4 N         140.5242  138.0424  162.4277 N.3     1  UNL1       -0.2626
      5 C         141.3540  138.7087  161.3706 C.3     1  UNL1        0.0900
      6 C         140.6874  139.3876  160.2110 C.3     1  UNL1        0.0897
      7 C         138.5244  140.0793  158.9489 C.3     1  UNL1        0.0937
      8 C         138.6555  141.5630  158.7721 C.3     1  UNL1        0.1082
      9 N         137.8138  143.8431  161.9093 N.am    1  UNL1       -0.2921
     10 C         138.5462  142.9107  160.9906 C.2     1  UNL1        0.3007
     11 O         139.9017  142.3936  161.3715 O.2     1  UNL1       -0.2528
     12 N         137.9231  142.4954  159.6908 N.am    1  UNL1       -0.2875
     13 H         136.9241  144.1825  161.6593 H       1  UNL1        0.1508
     14 H         137.0334  142.8348  159.4408 H       1  UNL1        0.1510
     15 C         137.7150  143.1463  163.9105 C.3     1  UNL1        0.0197
     16 C         138.4368  144.2585  163.2090 C.3     1  UNL1        0.0583
     17 C         139.1587  145.3706  162.5076 C.3     1  UNL1        0.0197
     18 C         139.0599  144.6738  164.5088 C.3     1  UNL1        0.0197
     19 C         141.1908  137.3635  163.5873 C.3     1  UNL1        0.1588
     20 C         141.3971  138.1065  164.8739 C.2     1  UNL1        0.2425
     21 O         142.6126  137.8353  165.7100 O.2     1  UNL1       -0.2733
     22 N         140.3879  139.1207  165.3244 N.am    1  UNL1       -0.2827
     23 H         139.5901  139.2987  164.7756 H       1  UNL1        0.1549
     24 C         140.5942  139.8637  166.6111 C.ar    1  UNL1        0.0520
     25 C         139.5699  139.7715  167.7029 C.ar    1  UNL1        0.0261
     26 C         139.7763  140.5145  168.9896 C.ar    1  UNL1        0.0597
     27 CL        138.7520  140.4223  170.0815 Cl      1  UNL1       -0.0822
     28 C         141.0070  141.3497  169.1843 C.ar    1  UNL1        0.0229
     29 C         142.0313  141.4419  168.0923 C.ar    1  UNL1        0.0597
     30 CL        143.2620  142.2770  168.2870 Cl      1  UNL1       -0.0822
     31 C         141.8249  140.6989  166.8058 C.ar    1  UNL1        0.0261
@<TRIPOS>BOND
     1    15    16    1
     2    16    17    1
     3    16    18    1
     4    16     9    1
     5     9    10   am
     6    10    11    2
     7    10    12   am
     8    12     8    1
     9     8     7    1
    10     7     1    1
    11     1     2    1
    12     2     3    1
    13     3     4    1
    14     4    19    1
    15    19    20    1
    16    20    21    2
    17    20    22   am
    18    22    24    1
    19    24    25   ar
    20    25    26   ar
    21    26    27    1
    22    26    28   ar
    23    28    29   ar
    24    29    30    1
    25    29    31   ar
    26     4     5    1
    27     5     6    1
    28     6     1    1
    29    31    24   ar
    30     9    13    1
    31    12    14    1
    32    22    23    1
@<TRIPOS>MOLECULE
*****
 31 32 0 0 0
SMALL
GASTEIGER

@<TRIPOS>ATOM
      1 N         144.0336  140.1542  161.2887 N.3     1  UNL1       -0.2689
      2 C         143.4911  141.5264  161.0192 C.3     1  UNL1        0.0897
      3 C         143.4510  142.5462  162.1185 C.3     1  UNL1        0.0900
      4 N         143.9534  142.1938  163.4871 N.3     1  UNL1       -0.2626
      5 C         144.4960  140.8216  163.7566 C.3     1  UNL1        0.0900
      6 C         144.5361  139.8018  162.6573 C.3     1  UNL1        0.0897
      7 C         144.0737  139.1343  160.1894 C.3     1  UNL1        0.0937
      8 C         142.9359  138.1723  160.0170 C.3     1  UNL1        0.1082
      9 N         140.8578  137.2706  163.2756 N.am    1  UNL1       -0.2921
     10 C         141.3817  138.0321  162.0943 C.2     1  UNL1        0.3007
     11 O         140.8753  139.4149  161.8087 O.2     1  UNL1       -0.2528
     12 N         142.4120  137.4108  161.1984 N.am    1  UNL1       -0.2875
     13 H         141.1901  136.3631  163.4630 H       1  UNL1        0.1508
     14 H         142.7443  136.5033  161.3858 H       1  UNL1        0.1510
     15 C         138.7463  137.4669  163.2227 C.3     1  UNL1        0.0197
     16 C         139.8275  137.8919  164.1715 C.3     1  UNL1        0.0583
     17 C         140.9088  138.3169  165.1202 C.3     1  UNL1        0.0197
     18 C         138.7973  138.5132  165.0674 C.3     1  UNL1        0.0197
     19 C         143.9133  143.2137  164.5864 C.3     1  UNL1        0.1588
     20 C         143.5234  142.8040  165.9756 C.2     1  UNL1        0.2425
     21 O         144.3793  143.1995  167.1423 O.2     1  UNL1       -0.2733
     22 N         142.2775  141.9989  166.1983 N.am    1  UNL1       -0.2827
     23 H         141.7157  141.7393  165.4326 H       1  UNL1        0.1549
     24 C         141.8876  141.5893  167.5877 C.ar    1  UNL1        0.0520
     25 C         142.4126  140.3093  168.1674 C.ar    1  UNL1        0.0261
     26 C         142.0227  139.8997  169.5567 C.ar    1  UNL1        0.0597
     27 CL        142.5476  138.6198  170.1365 Cl      1  UNL1       -0.0822
     28 C         141.1077  140.7700  170.3663 C.ar    1  UNL1        0.0229
     29 C         140.5828  142.0500  169.7865 C.ar    1  UNL1        0.0597
     30 CL        139.6678  142.9204  170.5961 Cl      1  UNL1       -0.0822
     31 C         140.9727  142.4596  168.3973 C.ar    1  UNL1        0.0261
@<TRIPOS>BOND
     1    15    16    1
     2    16    17    1
     3    16    18    1
     4    16     9    1
     5     9    10   am
     6    10    11    2
     7    10    12   am
     8    12     8    1
     9     8     7    1
    10     7     1    1
    11     1     2    1
    12     2     3    1
    13     3     4    1
    14     4    19    1
    15    19    20    1
    16    20    21    2
    17    20    22   am
    18    22    24    1
    19    24    25   ar
    20    25    26   ar
    21    26    27    1
    22    26    28   ar
    23    28    29   ar
    24    29    30    1
    25    29    31   ar
    26     4     5    1
    27     5     6    1
    28     6     1    1
    29    31    24   ar
    30     9    13    1
    31    12    14    1
    32    22    23    1
@<TRIPOS>MOLECULE
*****
 31 32 0 0 0
SMALL
GASTEIGER

@<TRIPOS>ATOM
      1 N         140.9953  143.7677  159.2918 N.3     1  UNL1       -0.2689
      2 C         141.1373  145.0624  160.0358 C.3     1  UNL1        0.0897
      3 C         140.2360  145.3632  161.1965 C.3     1  UNL1        0.0900
      4 N         139.1927  144.3692  161.6132 N.3     1  UNL1       -0.2626
      5 C         139.0508  143.0746  160.8692 C.3     1  UNL1        0.0900
      6 C         139.9521  142.7738  159.7085 C.3     1  UNL1        0.0897
      7 C         141.8966  143.4669  158.1311 C.3     1  UNL1        0.0937
      8 C         143.2095  142.7784  158.3597 C.3     1  UNL1        0.1082
      9 N         144.9187  143.3469  161.8960 N.am    1  UNL1       -0.2921
     10 C         143.9808  142.8420  160.8398 C.2     1  UNL1        0.3007
     11 O         142.8766  141.8958  161.2076 O.2     1  UNL1       -0.2528
     12 N         144.1473  143.2833  159.4159 N.am    1  UNL1       -0.2875
     13 H         145.6435  143.9679  161.6546 H       1  UNL1        0.1508
     14 H         144.8721  143.9043  159.1745 H       1  UNL1        0.1510
     15 C         143.8869  144.1008  163.5891 C.3     1  UNL1        0.0197
     16 C         144.7523  142.9056  163.3199 C.3     1  UNL1        0.0583
     17 C         145.6177  141.7104  163.0506 C.3     1  UNL1        0.0197
     18 C         144.5859  142.4643  164.7439 C.3     1  UNL1        0.0197
     19 C         138.2914  144.6700  162.7738 C.3     1  UNL1        0.1588
     20 C         138.3308  143.8042  163.9980 C.2     1  UNL1        0.2425
     21 O         137.2090  143.8596  164.9923 O.2     1  UNL1       -0.2733
     22 N         139.4920  142.8829  164.2280 N.am    1  UNL1       -0.2827
     23 H         140.2283  142.8465  163.5755 H       1  UNL1        0.1549
     24 C         139.5314  142.0170  165.4523 C.ar    1  UNL1        0.0520
     25 C         138.7799  140.7191  165.4775 C.ar    1  UNL1        0.0261
     26 C         138.8193  139.8532  166.7018 C.ar    1  UNL1        0.0597
     27 CL        138.0678  138.5553  166.7269 Cl      1  UNL1       -0.0822
     28 C         139.6101  140.2853  167.9009 C.ar    1  UNL1        0.0229
     29 C         140.3616  141.5833  167.8757 C.ar    1  UNL1        0.0597
     30 CL        141.1524  142.0155  169.0748 Cl      1  UNL1       -0.0822
     31 C         140.3222  142.4491  166.6514 C.ar    1  UNL1        0.0261
@<TRIPOS>BOND
     1    15    16    1
     2    16    17    1
     3    16    18    1
     4    16     9    1
     5     9    10   am
     6    10    11    2
     7    10    12   am
     8    12     8    1
     9     8     7    1
    10     7     1    1
    11     1     2    1
    12     2     3    1
    13     3     4    1
    14     4    19    1
    15    19    20    1
    16    20    21    2
    17    20    22   am
    18    22    24    1
    19    24    25   ar
    20    25    26   ar
    21    26    27    1
    22    26    28   ar
    23    28    29   ar
    24    29    30    1
    25    29    31   ar
    26     4     5    1
    27     5     6    1
    28     6     1    1
    29    31    24   ar
    30     9    13    1
    31    12    14    1
    32    22    23    1
