@<TRIPOS>MOLECULE
*****
 30 33 0 0 0
SMALL
GASTEIGER

@<TRIPOS>ATOM
      1 N         138.9911  138.0890  162.7650 N.3     1  UNL1       -0.2727
      2 C         140.1972  137.9290  161.8877 C.3     1  UNL1        0.0725
      3 C         140.2419  138.5967  160.5453 C.3     1  UNL1        0.0232
      4 C         139.0807  139.4245  160.0803 C.3     1  UNL1        0.0444
      5 C         137.8746  139.5846  160.9577 C.3     1  UNL1        0.0232
      6 C         137.8299  138.9168  162.3001 C.3     1  UNL1        0.0725
      7 C         138.0012  140.2785  159.4839 C.3     1  UNL1        0.1212
      8 N         138.4662  140.7373  158.1335 N.pl3   1  UNL1       -0.1777
      9 C         139.8330  140.1670  157.8954 C.ar    1  UNL1        0.1461
     10 N         140.7808  140.2816  156.7385 N.ar    1  UNL1       -0.2280
     11 C         142.1083  139.5849  156.7847 C.ar    1  UNL1        0.1003
     12 C         142.4881  138.7735  157.9878 C.ar    1  UNL1        0.0205
     13 C         141.5403  138.6589  159.1447 C.ar    1  UNL1        0.0002
     14 C         140.2127  139.3557  159.0985 C.ar    1  UNL1        0.0120
     15 S         137.6991  141.6128  157.1874 S.O2    1  UNL1        0.0599
     16 C         136.9319  142.4883  156.2414 C.3     1  UNL1        0.1999
     17 O         138.3085  142.8293  157.8190 O.2     1  UNL1       -0.1542
     18 O         137.0896  140.3963  156.5559 O.2     1  UNL1       -0.1542
     19 C         138.9463  137.4212  164.1075 C.3     1  UNL1        0.0722
     20 C         139.6428  140.6739  169.1010 C.2     1  UNL1        0.4049
     21 O         138.5495  140.7160  170.1272 O.2     1  UNL1       -0.2262
     22 N         139.4687  139.8607  167.8526 N.am    1  UNL1       -0.2460
     23 C         140.5619  139.8186  166.8265 C.3     1  UNL1        0.0968
     24 C         140.3878  139.0054  165.5780 C.3     1  UNL1        0.0231
     25 C         139.1205  138.2344  165.3559 C.3     1  UNL1        0.0194
     26 C         138.0272  138.2765  166.3821 C.3     1  UNL1        0.0231
     27 C         138.2013  139.0897  167.6304 C.3     1  UNL1        0.0968
     28 O         140.9101  141.4449  169.3232 O.3     1  UNL1       -0.4345
     29 C         140.4051  143.9403  169.8409 C.3     1  UNL1        0.0513
     30 C         140.9847  142.8926  168.9374 C.3     1  UNL1        0.2102
@<TRIPOS>BOND
     1    29    30    1
     2    30    28    1
     3    28    20    1
     4    20    21    2
     5    20    22   am
     6    22    23    1
     7    23    24    1
     8    24    25    1
     9    25    19    1
    10    19     1    1
    11     1     2    1
    12     2     3    1
    13     3     4    1
    14     4     5    1
    15     5     6    1
    16     4     7    1
    17     7     8    1
    18     8    15    1
    19    15    16    1
    20    15    17    2
    21    15    18    2
    22     8     9    1
    23     9    10   ar
    24    10    11   ar
    25    11    12   ar
    26    12    13   ar
    27    13    14   ar
    28    25    26    1
    29    26    27    1
    30    27    22    1
    31     6     1    1
    32    14     9   ar
    33    14     4    1
@<TRIPOS>MOLECULE
*****
 30 33 0 0 0
SMALL
GASTEIGER

@<TRIPOS>ATOM
      1 N         138.7403  139.1841  164.8606 N.3     1  UNL1       -0.2727
      2 C         139.9272  138.5474  164.2003 C.3     1  UNL1        0.0725
      3 C         140.2237  138.8298  162.7574 C.3     1  UNL1        0.0232
      4 C         139.3335  139.7490  161.9747 C.3     1  UNL1        0.0444
      5 C         138.1467  140.3857  162.6349 C.3     1  UNL1        0.0232
      6 C         137.8501  140.1032  164.0779 C.3     1  UNL1        0.0725
      7 C         138.5376  140.6417  161.0693 C.3     1  UNL1        0.1212
      8 N         139.1903  140.6327  159.7187 N.pl3   1  UNL1       -0.1777
      9 C         140.3896  139.7344  159.7894 C.ar    1  UNL1        0.1461
     10 N         141.4124  139.3432  158.7643 N.ar    1  UNL1       -0.2280
     11 C         142.5237  138.4059  159.1335 C.ar    1  UNL1        0.1003
     12 C         142.6123  137.8597  160.5277 C.ar    1  UNL1        0.0205
     13 C         141.5894  138.2509  161.5528 C.ar    1  UNL1        0.0002
     14 C         140.4781  139.1883  161.1836 C.ar    1  UNL1        0.0120
     15 S         138.7254  141.3892  158.5097 S.O2    1  UNL1        0.0599
     16 C         138.2605  142.1456  157.3008 C.3     1  UNL1        0.1999
     17 O         139.6485  142.5181  158.8611 O.2     1  UNL1       -0.1542
     18 O         137.8022  140.2602  158.1584 O.2     1  UNL1       -0.1542
     19 C         138.4437  138.9017  166.3037 C.3     1  UNL1        0.0722
     20 C         140.7449  142.4206  170.5840 C.2     1  UNL1        0.4049
     21 O         140.2846  142.2732  172.0040 O.2     1  UNL1       -0.2262
     22 N         140.1696  141.5409  169.5139 N.am    1  UNL1       -0.2460
     23 C         140.6300  141.6882  168.0940 C.3     1  UNL1        0.0968
     24 C         140.0547  140.8085  167.0238 C.3     1  UNL1        0.0231
     25 C         139.0190  139.7814  167.3737 C.3     1  UNL1        0.0194
     26 C         138.5586  139.6340  168.7937 C.3     1  UNL1        0.0231
     27 C         139.1340  140.5137  169.8638 C.3     1  UNL1        0.0968
     28 O         141.7806  143.4477  170.2341 O.3     1  UNL1       -0.4345
     29 C         144.1796  142.5621  169.7750 C.3     1  UNL1        0.0513
     30 C         143.2022  143.2594  170.6742 C.3     1  UNL1        0.2102
@<TRIPOS>BOND
     1    29    30    1
     2    30    28    1
     3    28    20    1
     4    20    21    2
     5    20    22   am
     6    22    23    1
     7    23    24    1
     8    24    25    1
     9    25    19    1
    10    19     1    1
    11     1     2    1
    12     2     3    1
    13     3     4    1
    14     4     5    1
    15     5     6    1
    16     4     7    1
    17     7     8    1
    18     8    15    1
    19    15    16    1
    20    15    17    2
    21    15    18    2
    22     8     9    1
    23     9    10   ar
    24    10    11   ar
    25    11    12   ar
    26    12    13   ar
    27    13    14   ar
    28    25    26    1
    29    26    27    1
    30    27    22    1
    31     6     1    1
    32    14     9   ar
    33    14     4    1
@<TRIPOS>MOLECULE
*****
 30 33 0 0 0
SMALL
GASTEIGER

@<TRIPOS>ATOM
      1 N         138.8088  139.1016  164.9587 N.3     1  UNL1       -0.2727
      2 C         138.3858  140.2754  164.1262 C.3     1  UNL1        0.0725
      3 C         138.8731  140.4076  162.7137 C.3     1  UNL1        0.0232
      4 C         139.7835  139.3660  162.1338 C.3     1  UNL1        0.0444
      5 C         140.2065  138.1922  162.9663 C.3     1  UNL1        0.0232
      6 C         139.7192  138.0600  164.3788 C.3     1  UNL1        0.0725
      7 C         140.6927  138.4089  161.4216 C.3     1  UNL1        0.1212
      8 N         140.9183  138.9299  160.0331 N.pl3   1  UNL1       -0.1777
      9 C         140.1485  140.2091  159.8873 C.ar    1  UNL1        0.1461
     10 N         139.9955  141.1632  158.7400 N.ar    1  UNL1       -0.2280
     11 C         139.1412  142.3868  158.8910 C.ar    1  UNL1        0.1003
     12 C         138.4398  142.6564  160.1893 C.ar    1  UNL1        0.0205
     13 C         138.5928  141.7022  161.3365 C.ar    1  UNL1        0.0002
     14 C         139.4471  140.4786  161.1855 C.ar    1  UNL1        0.0120
     15 S         141.7650  138.2850  158.9761 S.O2    1  UNL1        0.0599
     16 C         142.6117  137.6402  157.9192 C.3     1  UNL1        0.1999
     17 O         140.5374  138.0140  158.1580 O.2     1  UNL1       -0.1542
     18 O         142.9928  138.5562  159.7943 O.2     1  UNL1       -0.1542
     19 C         138.3215  138.9694  166.3712 C.3     1  UNL1        0.0722
     20 C         140.6905  142.3891  170.6947 C.2     1  UNL1        0.4049
     21 O         140.3211  142.1483  172.1284 O.2     1  UNL1       -0.2262
     22 N         140.0983  141.5342  169.6138 N.am    1  UNL1       -0.2460
     23 C         140.4678  141.7750  168.1801 C.3     1  UNL1        0.0968
     24 C         139.8755  140.9200  167.0992 C.3     1  UNL1        0.0231
     25 C         138.9138  139.8243  167.4520 C.3     1  UNL1        0.0194
     26 C         138.5443  139.5835  168.8858 C.3     1  UNL1        0.0231
     27 C         139.1366  140.4384  169.9666 C.3     1  UNL1        0.0968
     28 O         141.6523  143.4848  170.3418 O.3     1  UNL1       -0.4345
     29 C         143.8216  142.1634  169.7960 C.3     1  UNL1        0.0513
     30 C         143.1266  143.2760  170.5233 C.3     1  UNL1        0.2102
@<TRIPOS>BOND
     1    29    30    1
     2    30    28    1
     3    28    20    1
     4    20    21    2
     5    20    22   am
     6    22    23    1
     7    23    24    1
     8    24    25    1
     9    25    19    1
    10    19     1    1
    11     1     2    1
    12     2     3    1
    13     3     4    1
    14     4     5    1
    15     5     6    1
    16     4     7    1
    17     7     8    1
    18     8    15    1
    19    15    16    1
    20    15    17    2
    21    15    18    2
    22     8     9    1
    23     9    10   ar
    24    10    11   ar
    25    11    12   ar
    26    12    13   ar
    27    13    14   ar
    28    25    26    1
    29    26    27    1
    30    27    22    1
    31     6     1    1
    32    14     9   ar
    33    14     4    1
@<TRIPOS>MOLECULE
*****
 30 33 0 0 0
SMALL
GASTEIGER

@<TRIPOS>ATOM
      1 N         143.5827  139.6861  163.8172 N.3     1  UNL1       -0.2727
      2 C         142.2187  139.0622  163.8282 C.3     1  UNL1        0.0725
      3 C         141.3291  139.2250  165.0248 C.3     1  UNL1        0.0232
      4 C         141.8035  140.0118  166.2105 C.3     1  UNL1        0.0444
      5 C         143.1674  140.6358  166.1996 C.3     1  UNL1        0.0232
      6 C         144.0571  140.4729  165.0029 C.3     1  UNL1        0.0725
      7 C         142.1392  140.7665  167.4626 C.3     1  UNL1        0.1212
      8 N         140.9651  140.6697  168.3912 N.pl3   1  UNL1       -0.1777
      9 C         139.9036  139.8552  167.7129 C.ar    1  UNL1        0.1461
     10 N         138.5323  139.4312  168.1483 N.ar    1  UNL1       -0.2280
     11 C         137.6791  138.6007  167.2362 C.ar    1  UNL1        0.1003
     12 C         138.1972  138.1940  165.8884 C.ar    1  UNL1        0.0205
     13 C         139.5686  138.6180  165.4530 C.ar    1  UNL1        0.0002
     14 C         140.4218  139.4486  166.3652 C.ar    1  UNL1        0.0120
     15 S         140.8692  141.2802  169.7579 S.O2    1  UNL1        0.0599
     16 C         140.7733  141.8907  171.1247 C.3     1  UNL1        0.1999
     17 O         141.6860  140.1539  170.3184 O.2     1  UNL1       -0.1542
     18 O         140.0524  142.4067  169.1974 O.2     1  UNL1       -0.1542
     19 C         144.4724  139.5233  162.6205 C.3     1  UNL1        0.0722
     20 C         142.1017  138.1359  157.2863 C.2     1  UNL1        0.4049
     21 O         141.8345  139.2162  156.2804 O.2     1  UNL1       -0.2262
     22 N         142.6944  138.4828  158.6198 N.am    1  UNL1       -0.2460
     23 C         142.9615  137.4025  159.6256 C.3     1  UNL1        0.0968
     24 C         143.5542  137.7493  160.9592 C.3     1  UNL1        0.0231
     25 C         143.8797  139.1764  161.2870 C.3     1  UNL1        0.0194
     26 C         143.6125  140.2567  160.2811 C.3     1  UNL1        0.0231
     27 C         143.0199  139.9099  158.9476 C.3     1  UNL1        0.0968
     28 O         141.7762  136.7089  156.9585 O.3     1  UNL1       -0.4345
     29 C         143.3171  134.6216  157.0970 C.3     1  UNL1        0.0513
     30 C         142.8209  135.8225  156.3476 C.3     1  UNL1        0.2102
@<TRIPOS>BOND
     1    29    30    1
     2    30    28    1
     3    28    20    1
     4    20    21    2
     5    20    22   am
     6    22    23    1
     7    23    24    1
     8    24    25    1
     9    25    19    1
    10    19     1    1
    11     1     2    1
    12     2     3    1
    13     3     4    1
    14     4     5    1
    15     5     6    1
    16     4     7    1
    17     7     8    1
    18     8    15    1
    19    15    16    1
    20    15    17    2
    21    15    18    2
    22     8     9    1
    23     9    10   ar
    24    10    11   ar
    25    11    12   ar
    26    12    13   ar
    27    13    14   ar
    28    25    26    1
    29    26    27    1
    30    27    22    1
    31     6     1    1
    32    14     9   ar
    33    14     4    1
@<TRIPOS>MOLECULE
*****
 30 33 0 0 0
SMALL
GASTEIGER

@<TRIPOS>ATOM
      1 N         140.8817  143.9755  163.6221 N.3     1  UNL1       -0.2727
      2 C         141.8753  142.8630  163.4639 C.3     1  UNL1        0.0725
      3 C         142.0641  141.8637  164.5666 C.3     1  UNL1        0.0232
      4 C         141.2594  141.9771  165.8274 C.3     1  UNL1        0.0444
      5 C         140.2659  143.0896  165.9855 C.3     1  UNL1        0.0232
      6 C         140.0771  144.0889  164.8829 C.3     1  UNL1        0.0725
      7 C         140.5305  141.9623  167.1383 C.3     1  UNL1        0.1212
      8 N         141.0309  140.7932  167.9338 N.pl3   1  UNL1       -0.1777
      9 C         142.0692  140.0854  167.1145 C.ar    1  UNL1        0.1461
     10 N         142.9042  138.8692  167.3857 N.ar    1  UNL1       -0.2280
     11 C         143.8804  138.3847  166.3552 C.ar    1  UNL1        0.1003
     12 C         144.0217  139.1163  165.0533 C.ar    1  UNL1        0.0205
     13 C         143.1866  140.3325  164.7821 C.ar    1  UNL1        0.0002
     14 C         142.2104  140.8170  165.8127 C.ar    1  UNL1        0.0120
     15 S         140.5735  140.4008  169.3074 S.O2    1  UNL1        0.0599
     16 C         140.1160  140.0084  170.6810 C.3     1  UNL1        0.1999
     17 O         141.7610  141.0981  169.9021 O.2     1  UNL1       -0.1542
     18 O         139.3859  139.7035  168.7127 O.2     1  UNL1       -0.1542
     19 C         140.6929  144.9749  162.5195 C.3     1  UNL1        0.0722
     20 C         138.8848  143.1525  157.0964 C.2     1  UNL1        0.4049
     21 O         138.0256  141.9300  156.9638 O.2     1  UNL1       -0.2262
     22 N         139.3368  143.6080  158.4522 N.am    1  UNL1       -0.2460
     23 C         140.1960  144.8304  158.5847 C.3     1  UNL1        0.0968
     24 C         140.6480  145.2860  159.9405 C.3     1  UNL1        0.0231
     25 C         140.2409  144.5193  161.1637 C.3     1  UNL1        0.0194
     26 C         139.3816  143.2969  161.0311 C.3     1  UNL1        0.0231
     27 C         138.9296  142.8413  159.6754 C.3     1  UNL1        0.0968
     28 O         139.2920  143.9192  155.8732 O.3     1  UNL1       -0.4345
     29 C         138.6045  146.3884  155.4483 C.3     1  UNL1        0.0513
     30 C         138.3529  144.9206  155.2686 C.3     1  UNL1        0.2102
@<TRIPOS>BOND
     1    29    30    1
     2    30    28    1
     3    28    20    1
     4    20    21    2
     5    20    22   am
     6    22    23    1
     7    23    24    1
     8    24    25    1
     9    25    19    1
    10    19     1    1
    11     1     2    1
    12     2     3    1
    13     3     4    1
    14     4     5    1
    15     5     6    1
    16     4     7    1
    17     7     8    1
    18     8    15    1
    19    15    16    1
    20    15    17    2
    21    15    18    2
    22     8     9    1
    23     9    10   ar
    24    10    11   ar
    25    11    12   ar
    26    12    13   ar
    27    13    14   ar
    28    25    26    1
    29    26    27    1
    30    27    22    1
    31     6     1    1
    32    14     9   ar
    33    14     4    1
@<TRIPOS>MOLECULE
*****
 30 33 0 0 0
SMALL
GASTEIGER

@<TRIPOS>ATOM
      1 N         139.2795  142.4796  163.3550 N.3     1  UNL1       -0.2727
      2 C         140.1027  141.2258  163.3675 C.3     1  UNL1        0.0725
      3 C         140.8506  140.8320  164.6066 C.3     1  UNL1        0.0232
      4 C         140.7754  141.6920  165.8332 C.3     1  UNL1        0.0444
      5 C         139.9523  142.9459  165.8208 C.3     1  UNL1        0.0232
      6 C         139.2043  143.3397  164.5817 C.3     1  UNL1        0.0725
      7 C         140.7954  142.4479  167.1287 C.3     1  UNL1        0.1212
      8 N         141.6671  141.6962  168.0907 N.pl3   1  UNL1       -0.1777
      9 C         142.1858  140.4757  167.3896 C.ar    1  UNL1        0.1461
     10 N         143.0887  139.3663  167.8414 N.ar    1  UNL1       -0.2280
     11 C         143.4406  138.2545  166.8981 C.ar    1  UNL1        0.1003
     12 C         142.8895  138.2519  165.5029 C.ar    1  UNL1        0.0205
     13 C         141.9866  139.3612  165.0512 C.ar    1  UNL1        0.0002
     14 C         141.6347  140.4731  165.9945 C.ar    1  UNL1        0.0120
     15 S         141.9674  142.0949  169.5051 S.O2    1  UNL1        0.0599
     16 C         142.2676  142.4937  170.9196 C.3     1  UNL1        0.1999
     17 O         140.6744  141.4803  169.9529 O.2     1  UNL1       -0.1542
     18 O         143.2604  142.7096  169.0574 O.2     1  UNL1       -0.1542
     19 C         138.5315  142.8735  162.1159 C.3     1  UNL1        0.0722
     20 C         141.4812  145.2308  157.4530 C.2     1  UNL1        0.4049
     21 O         142.5009  146.3077  157.6774 O.2     1  UNL1       -0.2262
     22 N         140.7438  144.6415  158.6187 N.am    1  UNL1       -0.2460
     23 C         139.7241  143.5646  158.3943 C.3     1  UNL1        0.0968
     24 C         138.9866  142.9752  159.5600 C.3     1  UNL1        0.0231
     25 C         139.2689  143.4628  160.9502 C.3     1  UNL1        0.0194
     26 C         140.2887  144.5398  161.1746 C.3     1  UNL1        0.0231
     27 C         141.0261  145.1291  160.0089 C.3     1  UNL1        0.0968
     28 O         141.1988  144.7432  156.0628 O.3     1  UNL1       -0.4345
     29 C         139.8168  146.8546  155.4446 C.3     1  UNL1        0.0513
     30 C         140.1332  145.4029  155.2386 C.3     1  UNL1        0.2102
@<TRIPOS>BOND
     1    29    30    1
     2    30    28    1
     3    28    20    1
     4    20    21    2
     5    20    22   am
     6    22    23    1
     7    23    24    1
     8    24    25    1
     9    25    19    1
    10    19     1    1
    11     1     2    1
    12     2     3    1
    13     3     4    1
    14     4     5    1
    15     5     6    1
    16     4     7    1
    17     7     8    1
    18     8    15    1
    19    15    16    1
    20    15    17    2
    21    15    18    2
    22     8     9    1
    23     9    10   ar
    24    10    11   ar
    25    11    12   ar
    26    12    13   ar
    27    13    14   ar
    28    25    26    1
    29    26    27    1
    30    27    22    1
    31     6     1    1
    32    14     9   ar
    33    14     4    1
@<TRIPOS>MOLECULE
*****
 30 33 0 0 0
SMALL
GASTEIGER

@<TRIPOS>ATOM
      1 N         143.2268  138.2839  162.6397 N.3     1  UNL1       -0.2727
      2 C         141.8041  138.0177  163.0335 C.3     1  UNL1        0.0725
      3 C         141.2755  138.5427  164.3354 C.3     1  UNL1        0.0232
      4 C         142.1697  139.3338  165.2435 C.3     1  UNL1        0.0444
      5 C         143.5923  139.6000  164.8497 C.3     1  UNL1        0.0232
      6 C         144.1209  139.0750  163.5478 C.3     1  UNL1        0.0725
      7 C         142.9411  140.1363  166.2490 C.3     1  UNL1        0.1212
      8 N         142.0250  140.4469  167.3955 N.pl3   1  UNL1       -0.1777
      9 C         140.6874  139.8365  167.0985 C.ar    1  UNL1        0.1461
     10 N         139.3995  139.8181  167.8673 N.ar    1  UNL1       -0.2280
     11 C         138.2011  139.1120  167.3062 C.ar    1  UNL1        0.1003
     12 C         138.2904  138.4240  165.9762 C.ar    1  UNL1        0.0205
     13 C         139.5783  138.4423  165.2074 C.ar    1  UNL1        0.0002
     14 C         140.7767  139.1486  165.7686 C.ar    1  UNL1        0.0120
     15 S         142.3836  141.2304  168.6233 S.O2    1  UNL1        0.0599
     16 C         142.7422  142.0140  169.8511 C.3     1  UNL1        0.1999
     17 O         141.7193  142.4437  168.0431 O.2     1  UNL1       -0.1542
     18 O         143.0480  140.0171  169.2035 O.2     1  UNL1       -0.1542
     19 C         143.7554  137.7589  161.3378 C.3     1  UNL1        0.0722
     20 C         142.3928  140.5481  156.2033 C.2     1  UNL1        0.4049
     21 O         141.6355  139.8202  155.1324 O.2     1  UNL1       -0.2262
     22 N         142.7334  139.8508  157.4869 N.am    1  UNL1       -0.2460
     23 C         143.4907  140.5787  158.5577 C.3     1  UNL1        0.0968
     24 C         143.8314  139.8814  159.8414 C.3     1  UNL1        0.0231
     25 C         143.4148  138.4562  160.0542 C.3     1  UNL1        0.0194
     26 C         142.6575  137.7283  158.9833 C.3     1  UNL1        0.0231
     27 C         142.3168  138.4256  157.6997 C.3     1  UNL1        0.0968
     28 O         142.8094  141.9733  155.9905 O.3     1  UNL1       -0.4345
     29 C         145.3756  142.3511  155.8427 C.3     1  UNL1        0.0513
     30 C         144.0321  142.2841  155.1790 C.3     1  UNL1        0.2102
@<TRIPOS>BOND
     1    29    30    1
     2    30    28    1
     3    28    20    1
     4    20    21    2
     5    20    22   am
     6    22    23    1
     7    23    24    1
     8    24    25    1
     9    25    19    1
    10    19     1    1
    11     1     2    1
    12     2     3    1
    13     3     4    1
    14     4     5    1
    15     5     6    1
    16     4     7    1
    17     7     8    1
    18     8    15    1
    19    15    16    1
    20    15    17    2
    21    15    18    2
    22     8     9    1
    23     9    10   ar
    24    10    11   ar
    25    11    12   ar
    26    12    13   ar
    27    13    14   ar
    28    25    26    1
    29    26    27    1
    30    27    22    1
    31     6     1    1
    32    14     9   ar
    33    14     4    1
@<TRIPOS>MOLECULE
*****
 30 33 0 0 0
SMALL
GASTEIGER

@<TRIPOS>ATOM
      1 N         140.4443  139.6086  162.2425 N.3     1  UNL1       -0.2727
      2 C         139.9721  140.9974  161.9288 C.3     1  UNL1        0.0725
      3 C         140.7350  141.8471  160.9563 C.3     1  UNL1        0.0232
      4 C         141.9701  141.3082  160.2975 C.3     1  UNL1        0.0444
      5 C         142.4423  139.9194  160.6112 C.3     1  UNL1        0.0232
      6 C         141.6794  139.0697  161.5837 C.3     1  UNL1        0.0725
      7 C         143.2160  140.9073  159.5647 C.3     1  UNL1        0.1212
      8 N         143.6371  142.0594  158.7013 N.pl3   1  UNL1       -0.1777
      9 C         142.6513  143.1724  158.9006 C.ar    1  UNL1        0.1461
     10 N         142.5587  144.5487  158.3112 N.ar    1  UNL1       -0.2280
     11 C         141.4360  145.4606  158.7083 C.ar    1  UNL1        0.1003
     12 C         140.4057  144.9963  159.6948 C.ar    1  UNL1        0.0205
     13 C         140.4984  143.6201  160.2842 C.ar    1  UNL1        0.0002
     14 C         141.6212  142.7081  159.8871 C.ar    1  UNL1        0.0120
     15 S         144.8337  142.0928  157.7974 S.O2    1  UNL1        0.0599
     16 C         146.0303  142.1261  156.8936 C.3     1  UNL1        0.1999
     17 O         144.0604  141.3528  156.7465 O.2     1  UNL1       -0.1542
     18 O         145.6070  142.8327  158.8485 O.2     1  UNL1       -0.1542
     19 C         139.6813  138.7588  163.2150 C.3     1  UNL1        0.0722
     20 C         139.4120  140.3258  169.0005 C.2     1  UNL1        0.4049
     21 O         138.2940  139.8201  169.8633 O.2     1  UNL1       -0.2262
     22 N         139.4793  139.9340  167.5541 N.am    1  UNL1       -0.2460
     23 C         140.5973  140.4397  166.6914 C.3     1  UNL1        0.0968
     24 C         140.6647  140.0480  165.2450 C.3     1  UNL1        0.0231
     25 C         139.6140  139.1505  164.6614 C.3     1  UNL1        0.0194
     26 C         138.4960  138.6448  165.5241 C.3     1  UNL1        0.0231
     27 C         138.4287  139.0366  166.9705 C.3     1  UNL1        0.0968
     28 O         140.4627  141.2232  169.5841 O.3     1  UNL1       -0.4345
     29 C         140.4661  143.8099  169.8279 C.3     1  UNL1        0.0513
     30 C         140.0614  142.4578  170.3358 C.3     1  UNL1        0.2102
@<TRIPOS>BOND
     1    29    30    1
     2    30    28    1
     3    28    20    1
     4    20    21    2
     5    20    22   am
     6    22    23    1
     7    23    24    1
     8    24    25    1
     9    25    19    1
    10    19     1    1
    11     1     2    1
    12     2     3    1
    13     3     4    1
    14     4     5    1
    15     5     6    1
    16     4     7    1
    17     7     8    1
    18     8    15    1
    19    15    16    1
    20    15    17    2
    21    15    18    2
    22     8     9    1
    23     9    10   ar
    24    10    11   ar
    25    11    12   ar
    26    12    13   ar
    27    13    14   ar
    28    25    26    1
    29    26    27    1
    30    27    22    1
    31     6     1    1
    32    14     9   ar
    33    14     4    1
@<TRIPOS>MOLECULE
*****
 30 33 0 0 0
SMALL
GASTEIGER

@<TRIPOS>ATOM
      1 N         141.0994  138.5534  159.1174 N.3     1  UNL1       -0.2727
      2 C         142.3100  138.7400  159.9830 C.3     1  UNL1        0.0725
      3 C         142.1613  138.8183  161.4736 C.3     1  UNL1        0.0232
      4 C         140.8020  138.7100  162.0984 C.3     1  UNL1        0.0444
      5 C         139.5913  138.5235  161.2327 C.3     1  UNL1        0.0232
      6 C         139.7400  138.4452  159.7422 C.3     1  UNL1        0.0725
      7 C         139.5142  138.6184  162.8620 C.3     1  UNL1        0.1212
      8 N         139.8313  138.7454  164.3227 N.pl3   1  UNL1       -0.1777
      9 C         141.3152  138.9156  164.4617 C.ar    1  UNL1        0.1461
     10 N         142.1976  139.0877  165.6625 N.ar    1  UNL1       -0.2280
     11 C         143.6798  139.2378  165.4886 C.ar    1  UNL1        0.1003
     12 C         144.2798  139.2160  164.1139 C.ar    1  UNL1        0.0205
     13 C         143.3974  139.0439  162.9132 C.ar    1  UNL1        0.0002
     14 C         141.9151  138.8937  163.0871 C.ar    1  UNL1        0.0120
     15 S         138.8389  138.7087  165.4468 S.O2    1  UNL1        0.0599
     16 C         137.8464  138.6720  166.5710 C.3     1  UNL1        0.1999
     17 O         138.7625  137.2152  165.3307 O.2     1  UNL1       -0.1542
     18 O         138.9152  140.2023  165.5629 O.2     1  UNL1       -0.1542
     19 C         141.2480  138.4751  157.6267 C.3     1  UNL1        0.0722
     20 C         142.8287  133.2987  155.0372 C.2     1  UNL1        0.4049
     21 O         141.9444  132.6808  153.9949 O.2     1  UNL1       -0.2262
     22 N         142.4335  134.5928  155.6846 N.am    1  UNL1       -0.2460
     23 C         143.3177  135.2107  156.7269 C.3     1  UNL1        0.0968
     24 C         142.9225  136.5048  157.3743 C.3     1  UNL1        0.0231
     25 C         141.6432  137.1811  156.9794 C.3     1  UNL1        0.0194
     26 C         140.7590  136.5631  155.9370 C.3     1  UNL1        0.0231
     27 C         141.1541  135.2690  155.2897 C.3     1  UNL1        0.0968
     28 O         144.1080  132.6225  155.4322 O.3     1  UNL1       -0.4345
     29 C         145.0325  131.9750  157.7723 C.3     1  UNL1        0.0513
     30 C         144.1319  131.6902  156.6071 C.3     1  UNL1        0.2102
@<TRIPOS>BOND
     1    29    30    1
     2    30    28    1
     3    28    20    1
     4    20    21    2
     5    20    22   am
     6    22    23    1
     7    23    24    1
     8    24    25    1
     9    25    19    1
    10    19     1    1
    11     1     2    1
    12     2     3    1
    13     3     4    1
    14     4     5    1
    15     5     6    1
    16     4     7    1
    17     7     8    1
    18     8    15    1
    19    15    16    1
    20    15    17    2
    21    15    18    2
    22     8     9    1
    23     9    10   ar
    24    10    11   ar
    25    11    12   ar
    26    12    13   ar
    27    13    14   ar
    28    25    26    1
    29    26    27    1
    30    27    22    1
    31     6     1    1
    32    14     9   ar
    33    14     4    1
