@<TRIPOS>MOLECULE
*****
 34 37 0 0 0
SMALL
GASTEIGER

@<TRIPOS>ATOM
      1 C         141.3647  141.0118  159.3522 C.ar    1  UNL1        0.0659
      2 C         140.7782  139.7754  158.7381 C.ar    1  UNL1        0.0159
      3 C         140.0537  138.7823  159.5976 C.ar    1  UNL1        0.0014
      4 C         139.9155  139.0257  161.0713 C.ar    1  UNL1        0.0032
      5 C         139.1605  137.9164  161.7415 C.ar    1  UNL1        0.0016
      6 C         138.8053  137.7696  163.1915 C.ar    1  UNL1        0.0192
      7 C         139.1176  138.6959  164.3293 C.ar    1  UNL1        0.0844
      8 N         138.5771  138.1718  165.6267 N.ar    1  UNL1       -0.2437
      9 C         138.7811  138.9497  166.8929 C.ar    1  UNL1        0.0989
     10 C         139.5256  140.2515  166.8617 C.ar    1  UNL1        0.0223
     11 C         140.0661  140.7755  165.5644 C.ar    1  UNL1        0.0063
     12 C         139.8621  139.9977  164.2982 C.ar    1  UNL1        0.0566
     13 C         140.4782  140.6948  163.1214 C.ar    1  UNL1        0.1970
     14 O         141.1608  141.9965  163.4205 O.2     1  UNL1       -0.2865
     15 C         140.5020  140.2622  161.6854 C.ar    1  UNL1        0.0403
     16 C         141.2266  141.2553  160.8258 C.ar    1  UNL1        0.0191
     17 C         139.7296  141.0294  168.1280 C.ar    1  UNL1        0.0411
     18 C         139.3648  140.5751  169.5102 C.ar    1  UNL1        0.1217
     19 N         139.7440  141.6630  170.4709 N.ar    1  UNL1       -0.1676
     20 N         140.3430  142.7896  169.6823 N.ar    1  UNL1       -0.2473
     21 C         140.8601  144.0811  170.2432 C.3     1  UNL1        0.1538
     22 C         140.3341  142.3980  168.2343 C.ar    1  UNL1        0.0967
     23 N         142.0893  142.0049  158.4927 N.pl3   1  UNL1       -0.2052
     24 H         142.7829  141.6987  157.8646 H       1  UNL1        0.1748
     25 S         141.7572  143.4644  158.5901 S.O2    1  UNL1        0.1130
     26 O         140.3712  143.1823  158.0907 O.2     1  UNL1       -0.1379
     27 O         143.1432  143.7465  159.0894 O.2     1  UNL1       -0.1379
     28 N         141.4251  144.9240  158.6875 N.3     1  UNL1       -0.1413
     29 C         141.9938  145.8906  157.6915 C.3     1  UNL1        0.1163
     30 C         140.5243  145.4168  159.7809 C.3     1  UNL1        0.0998
     31 C         140.8761  145.1586  161.2160 C.3     1  UNL1        0.0512
     32 C         139.7978  145.1240  162.2581 C.3     1  UNL1        0.1438
     33 C         138.0786  143.1867  162.0548 C.3     1  UNL1        0.1741
     34 O         138.4244  144.6381  161.9004 O.3     1  UNL1       -0.3511
@<TRIPOS>BOND
     1    33    34    1
     2    34    32    1
     3    32    31    1
     4    31    30    1
     5    30    28    1
     6    28    29    1
     7    28    25    1
     8    25    26    2
     9    25    27    2
    10    25    23    1
    11    23     1    1
    12     1     2   ar
    13     2     3   ar
    14     3     4   ar
    15     4     5   ar
    16     5     6   ar
    17     6     7   ar
    18     7     8   ar
    19     8     9   ar
    20     9    10   ar
    21    10    17    1
    22    17    18   ar
    23    18    19   ar
    24    19    20   ar
    25    20    21    1
    26    20    22   ar
    27    10    11   ar
    28    11    12   ar
    29    12    13   ar
    30    13    14    2
    31    13    15   ar
    32    15    16   ar
    33    16     1   ar
    34    15     4   ar
    35    12     7   ar
    36    22    17   ar
    37    23    24    1
@<TRIPOS>MOLECULE
*****
 34 37 0 0 0
SMALL
GASTEIGER

@<TRIPOS>ATOM
      1 C         139.8175  142.5083  165.4811 C.ar    1  UNL1        0.0659
      2 C         139.1319  143.8376  165.5944 C.ar    1  UNL1        0.0159
      3 C         139.2173  144.8240  164.4675 C.ar    1  UNL1        0.0014
      4 C         139.9882  144.4810  163.2273 C.ar    1  UNL1        0.0032
      5 C         139.9473  145.6002  162.2295 C.ar    1  UNL1        0.0016
      6 C         140.5818  145.6664  160.8720 C.ar    1  UNL1        0.0192
      7 C         141.4140  144.6299  160.1770 C.ar    1  UNL1        0.0844
      8 N         141.8558  145.0996  158.8226 N.ar    1  UNL1       -0.2437
      9 C         142.7007  144.2105  157.9592 C.ar    1  UNL1        0.0989
     10 C         143.1039  142.8516  158.4501 C.ar    1  UNL1        0.0223
     11 C         142.6621  142.3819  159.8044 C.ar    1  UNL1        0.0063
     12 C         141.8172  143.2710  160.6678 C.ar    1  UNL1        0.0566
     13 C         141.4877  142.6132  161.9750 C.ar    1  UNL1        0.1970
     14 O         142.0461  141.2345  162.1686 O.2     1  UNL1       -0.2865
     15 C         140.6738  143.1516  163.1141 C.ar    1  UNL1        0.0403
     16 C         140.5884  142.1653  164.2410 C.ar    1  UNL1        0.0191
     17 C         143.9488  141.9625  157.5867 C.ar    1  UNL1        0.0411
     18 C         144.0958  140.4765  157.7290 C.ar    1  UNL1        0.1217
     19 N         145.0330  139.9988  156.6596 N.ar    1  UNL1       -0.1676
     20 N         145.4652  141.1896  155.8563 N.ar    1  UNL1       -0.2473
     21 C         146.4028  141.1702  154.6857 C.3     1  UNL1        0.1538
     22 C         144.7951  142.4032  156.4293 C.ar    1  UNL1        0.0967
     23 N         139.7321  141.5220  166.6080 N.pl3   1  UNL1       -0.2052
     24 H         138.8733  141.3693  167.0645 H       1  UNL1        0.1748
     25 S         140.9552  140.7684  167.0394 S.O2    1  UNL1        0.1130
     26 O         141.5548  142.0403  167.5615 O.2     1  UNL1       -0.1379
     27 O         140.3556  139.4964  166.5173 O.2     1  UNL1       -0.1379
     28 N         142.1783  140.0146  167.4707 N.3     1  UNL1       -0.1413
     29 C         142.8830  139.1115  166.5025 C.3     1  UNL1        0.1163
     30 C         142.6965  140.1641  168.8704 C.3     1  UNL1        0.0998
     31 C         142.0096  139.4614  170.0036 C.3     1  UNL1        0.0512
     32 C         141.0133  140.1979  170.8492 C.3     1  UNL1        0.1438
     33 C         138.5626  140.2723  169.9898 C.3     1  UNL1        0.1741
     34 O         139.5944  139.7173  170.9264 O.3     1  UNL1       -0.3511
@<TRIPOS>BOND
     1    33    34    1
     2    34    32    1
     3    32    31    1
     4    31    30    1
     5    30    28    1
     6    28    29    1
     7    28    25    1
     8    25    26    2
     9    25    27    2
    10    25    23    1
    11    23     1    1
    12     1     2   ar
    13     2     3   ar
    14     3     4   ar
    15     4     5   ar
    16     5     6   ar
    17     6     7   ar
    18     7     8   ar
    19     8     9   ar
    20     9    10   ar
    21    10    17    1
    22    17    18   ar
    23    18    19   ar
    24    19    20   ar
    25    20    21    1
    26    20    22   ar
    27    10    11   ar
    28    11    12   ar
    29    12    13   ar
    30    13    14    2
    31    13    15   ar
    32    15    16   ar
    33    16     1   ar
    34    15     4   ar
    35    12     7   ar
    36    22    17   ar
    37    23    24    1
@<TRIPOS>MOLECULE
*****
 34 37 0 0 0
SMALL
GASTEIGER

@<TRIPOS>ATOM
      1 C         139.7951  142.4881  165.2981 C.ar    1  UNL1        0.0659
      2 C         139.1014  143.8121  165.4235 C.ar    1  UNL1        0.0159
      3 C         139.1846  144.8111  164.3077 C.ar    1  UNL1        0.0014
      4 C         139.9615  144.4861  163.0664 C.ar    1  UNL1        0.0032
      5 C         139.9172  145.6159  162.0807 C.ar    1  UNL1        0.0016
      6 C         140.5557  145.7006  160.7260 C.ar    1  UNL1        0.0192
      7 C         141.3962  144.6765  160.0225 C.ar    1  UNL1        0.0844
      8 N         141.8395  145.1635  158.6748 N.ar    1  UNL1       -0.2437
      9 C         142.6924  144.2888  157.8046 C.ar    1  UNL1        0.0989
     10 C         143.1020  142.9270  158.2820 C.ar    1  UNL1        0.0223
     11 C         142.6586  142.4400  159.6296 C.ar    1  UNL1        0.0063
     12 C         141.8057  143.3148  160.4999 C.ar    1  UNL1        0.0566
     13 C         141.4759  142.6408  161.7988 C.ar    1  UNL1        0.1970
     14 O         142.0417  141.2634  161.9793 O.2     1  UNL1       -0.2865
     15 C         140.6552  143.1621  162.9410 C.ar    1  UNL1        0.0403
     16 C         140.5719  142.1631  164.0568 C.ar    1  UNL1        0.0191
     17 C         143.9549  142.0522  157.4117 C.ar    1  UNL1        0.0411
     18 C         144.3262  140.6258  157.6899 C.ar    1  UNL1        0.1217
     19 N         145.1871  140.1423  156.5605 N.ar    1  UNL1       -0.1676
     20 N         145.3477  141.2699  155.5845 N.ar    1  UNL1       -0.2473
     21 C         146.1321  141.2250  154.3068 C.3     1  UNL1        0.1538
     22 C         144.5861  142.4503  156.1106 C.ar    1  UNL1        0.0967
     23 N         139.7118  141.4891  166.4139 N.pl3   1  UNL1       -0.2052
     24 H         139.9083  141.7659  167.3381 H       1  UNL1        0.1748
     25 S         139.3293  140.0685  166.1217 S.O2    1  UNL1        0.1130
     26 O         140.6005  139.5946  166.7617 O.2     1  UNL1       -0.1379
     27 O         138.0582  140.5424  165.4818 O.2     1  UNL1       -0.1379
     28 N         138.9468  138.6478  165.8295 N.3     1  UNL1       -0.1413
     29 C         137.8465  137.9917  166.6097 C.3     1  UNL1        0.1163
     30 C         139.6645  137.8832  164.7570 C.3     1  UNL1        0.0998
     31 C         138.9893  137.6201  163.4437 C.3     1  UNL1        0.0512
     32 C         138.9421  138.6930  162.3964 C.3     1  UNL1        0.1438
     33 C         137.7316  140.9492  161.9554 C.3     1  UNL1        0.1741
     34 O         137.6763  139.4658  162.1709 O.3     1  UNL1       -0.3511
@<TRIPOS>BOND
     1    33    34    1
     2    34    32    1
     3    32    31    1
     4    31    30    1
     5    30    28    1
     6    28    29    1
     7    28    25    1
     8    25    26    2
     9    25    27    2
    10    25    23    1
    11    23     1    1
    12     1     2   ar
    13     2     3   ar
    14     3     4   ar
    15     4     5   ar
    16     5     6   ar
    17     6     7   ar
    18     7     8   ar
    19     8     9   ar
    20     9    10   ar
    21    10    17    1
    22    17    18   ar
    23    18    19   ar
    24    19    20   ar
    25    20    21    1
    26    20    22   ar
    27    10    11   ar
    28    11    12   ar
    29    12    13   ar
    30    13    14    2
    31    13    15   ar
    32    15    16   ar
    33    16     1   ar
    34    15     4   ar
    35    12     7   ar
    36    22    17   ar
    37    23    24    1
@<TRIPOS>MOLECULE
*****
 34 37 0 0 0
SMALL
GASTEIGER

@<TRIPOS>ATOM
      1 C         139.3459  140.1487  167.0268 C.ar    1  UNL1        0.0659
      2 C         138.7789  138.7674  166.8832 C.ar    1  UNL1        0.0159
      3 C         138.5178  138.2019  165.5187 C.ar    1  UNL1        0.0014
      4 C         138.8237  139.0176  164.2976 C.ar    1  UNL1        0.0032
      5 C         138.4904  138.2694  163.0411 C.ar    1  UNL1        0.0016
      6 C         138.6418  138.7176  161.6176 C.ar    1  UNL1        0.0192
      7 C         139.1639  140.0248  161.0992 C.ar    1  UNL1        0.0844
      8 N         139.1473  140.0656  159.5998 N.ar    1  UNL1       -0.2437
      9 C         139.6303  141.2883  158.8775 C.ar    1  UNL1        0.0989
     10 C         140.1299  142.4701  159.6545 C.ar    1  UNL1        0.0223
     11 C         140.1465  142.4292  161.1538 C.ar    1  UNL1        0.0063
     12 C         139.6635  141.2066  161.8762 C.ar    1  UNL1        0.0566
     13 C         139.7644  141.3730  163.3635 C.ar    1  UNL1        0.1970
     14 O         140.3114  142.6875  163.8356 O.2     1  UNL1       -0.2865
     15 C         139.3907  140.3989  164.4412 C.ar    1  UNL1        0.0403
     16 C         139.6517  140.9644  165.8057 C.ar    1  UNL1        0.0191
     17 C         140.6129  143.6928  158.9322 C.ar    1  UNL1        0.0411
     18 C         141.7738  144.5533  159.3342 C.ar    1  UNL1        0.1217
     19 N         141.8983  145.6620  158.3315 N.ar    1  UNL1       -0.1676
     20 N         140.8142  145.4866  157.3097 N.ar    1  UNL1       -0.2473
     21 C         140.5678  146.3726  156.1247 C.3     1  UNL1        0.1538
     22 C         140.0199  144.2695  157.6810 C.ar    1  UNL1        0.0967
     23 N         139.6070  140.7142  168.3913 N.pl3   1  UNL1       -0.2052
     24 H         138.9348  140.6120  169.1034 H       1  UNL1        0.1748
     25 S         140.8921  141.4353  168.6710 S.O2    1  UNL1        0.1130
     26 O         141.6357  140.1341  168.6092 O.2     1  UNL1       -0.1379
     27 O         140.1485  142.7365  168.7328 O.2     1  UNL1       -0.1379
     28 N         142.1773  142.1565  168.9507 N.3     1  UNL1       -0.1413
     29 C         142.3440  142.9236  170.2289 C.3     1  UNL1        0.1163
     30 C         143.2958  142.1106  167.9522 C.3     1  UNL1        0.0998
     31 C         143.0412  142.4877  166.5230 C.3     1  UNL1        0.0512
     32 C         143.3676  141.5218  165.4228 C.3     1  UNL1        0.1438
     33 C         145.5073  141.6794  163.9575 C.3     1  UNL1        0.1741
     34 O         144.0601  142.0038  164.1825 O.3     1  UNL1       -0.3511
@<TRIPOS>BOND
     1    33    34    1
     2    34    32    1
     3    32    31    1
     4    31    30    1
     5    30    28    1
     6    28    29    1
     7    28    25    1
     8    25    26    2
     9    25    27    2
    10    25    23    1
    11    23     1    1
    12     1     2   ar
    13     2     3   ar
    14     3     4   ar
    15     4     5   ar
    16     5     6   ar
    17     6     7   ar
    18     7     8   ar
    19     8     9   ar
    20     9    10   ar
    21    10    17    1
    22    17    18   ar
    23    18    19   ar
    24    19    20   ar
    25    20    21    1
    26    20    22   ar
    27    10    11   ar
    28    11    12   ar
    29    12    13   ar
    30    13    14    2
    31    13    15   ar
    32    15    16   ar
    33    16     1   ar
    34    15     4   ar
    35    12     7   ar
    36    22    17   ar
    37    23    24    1
@<TRIPOS>MOLECULE
*****
 34 37 0 0 0
SMALL
GASTEIGER

@<TRIPOS>ATOM
      1 C         139.6921  142.6951  165.3928 C.ar    1  UNL1        0.0659
      2 C         138.9562  143.9997  165.4727 C.ar    1  UNL1        0.0159
      3 C         139.0184  144.9672  164.3281 C.ar    1  UNL1        0.0014
      4 C         139.8163  144.6300  163.1035 C.ar    1  UNL1        0.0032
      5 C         139.7457  145.7279  162.0840 C.ar    1  UNL1        0.0016
      6 C         140.3936  145.7923  160.7326 C.ar    1  UNL1        0.0192
      7 C         141.2721  144.7747  160.0671 C.ar    1  UNL1        0.0844
      8 N         141.7123  145.2351  158.7091 N.ar    1  UNL1       -0.2437
      9 C         142.6000  144.3622  157.8725 C.ar    1  UNL1        0.0989
     10 C         143.0475  143.0288  158.3940 C.ar    1  UNL1        0.0223
     11 C         142.6073  142.5685  159.7520 C.ar    1  UNL1        0.0063
     12 C         141.7196  143.4414  160.5886 C.ar    1  UNL1        0.0566
     13 C         141.3992  142.7964  161.9044 C.ar    1  UNL1        0.1970
     14 O         142.0061  141.4435  162.1308 O.2     1  UNL1       -0.2865
     15 C         140.5522  143.3254  163.0237 C.ar    1  UNL1        0.0403
     16 C         140.4900  142.3579  164.1683 C.ar    1  UNL1        0.0191
     17 C         143.9353  142.1558  157.5575 C.ar    1  UNL1        0.0411
     18 C         144.3334  140.7443  157.8720 C.ar    1  UNL1        0.1217
     19 N         145.2249  140.2572  156.7684 N.ar    1  UNL1       -0.1676
     20 N         145.3778  141.3677  155.7718 N.ar    1  UNL1       -0.2473
     21 C         146.1858  141.3142  154.5092 C.3     1  UNL1        0.1538
     22 C         144.5807  142.5411  156.2594 C.ar    1  UNL1        0.0967
     23 N         139.6300  141.7276  166.5375 N.pl3   1  UNL1       -0.2052
     24 H         138.7684  141.5355  166.9733 H       1  UNL1        0.1748
     25 S         140.8805  141.0530  167.0180 S.O2    1  UNL1        0.1130
     26 O         141.4054  142.3717  167.5032 O.2     1  UNL1       -0.1379
     27 O         140.3556  139.7343  166.5328 O.2     1  UNL1       -0.1379
     28 N         142.1311  140.3783  167.4985 N.3     1  UNL1       -0.1413
     29 C         142.9615  141.0153  168.5730 C.3     1  UNL1        0.1163
     30 C         142.5513  139.0666  166.9045 C.3     1  UNL1        0.0998
     31 C         143.7500  139.0001  166.0054 C.3     1  UNL1        0.0512
     32 C         143.7585  139.7557  164.7096 C.3     1  UNL1        0.1438
     33 C         145.6000  141.3825  163.8653 C.3     1  UNL1        0.1741
     34 O         145.0520  139.9915  163.9874 O.3     1  UNL1       -0.3511
@<TRIPOS>BOND
     1    33    34    1
     2    34    32    1
     3    32    31    1
     4    31    30    1
     5    30    28    1
     6    28    29    1
     7    28    25    1
     8    25    26    2
     9    25    27    2
    10    25    23    1
    11    23     1    1
    12     1     2   ar
    13     2     3   ar
    14     3     4   ar
    15     4     5   ar
    16     5     6   ar
    17     6     7   ar
    18     7     8   ar
    19     8     9   ar
    20     9    10   ar
    21    10    17    1
    22    17    18   ar
    23    18    19   ar
    24    19    20   ar
    25    20    21    1
    26    20    22   ar
    27    10    11   ar
    28    11    12   ar
    29    12    13   ar
    30    13    14    2
    31    13    15   ar
    32    15    16   ar
    33    16     1   ar
    34    15     4   ar
    35    12     7   ar
    36    22    17   ar
    37    23    24    1
@<TRIPOS>MOLECULE
*****
 34 37 0 0 0
SMALL
GASTEIGER

@<TRIPOS>ATOM
      1 C         140.3598  139.3614  161.1299 C.ar    1  UNL1        0.0659
      2 C         139.2024  138.4083  161.1722 C.ar    1  UNL1        0.0159
      3 C         138.5523  138.0755  162.4824 C.ar    1  UNL1        0.0014
      4 C         139.0598  138.6957  163.7504 C.ar    1  UNL1        0.0032
      5 C         138.2737  138.2312  164.9404 C.ar    1  UNL1        0.0016
      6 C         138.4510  138.6051  166.3822 C.ar    1  UNL1        0.0192
      7 C         139.4581  139.5358  166.9900 C.ar    1  UNL1        0.0844
      8 N         139.2895  139.6300  168.4776 N.ar    1  UNL1       -0.2437
      9 C         140.1995  140.5110  169.2812 C.ar    1  UNL1        0.0989
     10 C         141.2781  141.2978  168.5973 C.ar    1  UNL1        0.0223
     11 C         141.4467  141.2035  167.1098 C.ar    1  UNL1        0.0063
     12 C         140.5367  140.3225  166.3062 C.ar    1  UNL1        0.0566
     13 C         140.8745  140.3728  164.8455 C.ar    1  UNL1        0.1970
     14 O         142.0213  141.2651  164.4732 O.2     1  UNL1       -0.2865
     15 C         140.2172  139.6488  163.7081 C.ar    1  UNL1        0.0403
     16 C         140.8673  139.9817  162.3979 C.ar    1  UNL1        0.0191
     17 C         142.1881  142.1787  169.4009 C.ar    1  UNL1        0.0411
     18 C         141.7584  143.2566  170.3514 C.ar    1  UNL1        0.1217
     19 N         142.9923  143.8806  170.9331 N.ar    1  UNL1       -0.1676
     20 N         144.1845  143.1883  170.3420 N.ar    1  UNL1       -0.2473
     21 C         145.6214  143.4942  170.6447 C.3     1  UNL1        0.1538
     22 C         143.6874  142.1365  169.3951 C.ar    1  UNL1        0.0967
     23 N         141.0099  139.6943  159.8197 N.pl3   1  UNL1       -0.2052
     24 H         141.3329  138.9726  159.2331 H       1  UNL1        0.1748
     25 S         141.1678  141.1266  159.4033 S.O2    1  UNL1        0.1130
     26 O         142.6482  141.0274  159.6233 O.2     1  UNL1       -0.1379
     27 O         139.6874  141.2259  159.1833 O.2     1  UNL1       -0.1379
     28 N         141.3257  142.5590  158.9869 N.3     1  UNL1       -0.1413
     29 C         141.0059  142.9708  157.5804 C.3     1  UNL1        0.1163
     30 C         141.8033  143.5796  159.9770 C.3     1  UNL1        0.0998
     31 C         140.8480  144.5985  160.5239 C.3     1  UNL1        0.0512
     32 C         139.9183  144.2307  161.6421 C.3     1  UNL1        0.1438
     33 C         138.0754  142.4521  162.0787 C.3     1  UNL1        0.1741
     34 O         138.5656  143.6594  161.3356 O.3     1  UNL1       -0.3511
@<TRIPOS>BOND
     1    33    34    1
     2    34    32    1
     3    32    31    1
     4    31    30    1
     5    30    28    1
     6    28    29    1
     7    28    25    1
     8    25    26    2
     9    25    27    2
    10    25    23    1
    11    23     1    1
    12     1     2   ar
    13     2     3   ar
    14     3     4   ar
    15     4     5   ar
    16     5     6   ar
    17     6     7   ar
    18     7     8   ar
    19     8     9   ar
    20     9    10   ar
    21    10    17    1
    22    17    18   ar
    23    18    19   ar
    24    19    20   ar
    25    20    21    1
    26    20    22   ar
    27    10    11   ar
    28    11    12   ar
    29    12    13   ar
    30    13    14    2
    31    13    15   ar
    32    15    16   ar
    33    16     1   ar
    34    15     4   ar
    35    12     7   ar
    36    22    17   ar
    37    23    24    1
@<TRIPOS>MOLECULE
*****
 34 37 0 0 0
SMALL
GASTEIGER

@<TRIPOS>ATOM
      1 C         142.1274  141.9500  162.1049 C.ar    1  UNL1        0.0659
      2 C         142.7276  143.1585  161.4498 C.ar    1  UNL1        0.0159
      3 C         143.3061  143.0540  160.0698 C.ar    1  UNL1        0.0014
      4 C         143.2844  141.7410  159.3449 C.ar    1  UNL1        0.0032
      5 C         143.9099  141.8546  157.9863 C.ar    1  UNL1        0.0016
      6 C         144.0897  140.7878  156.9473 C.ar    1  UNL1        0.0192
      7 C         143.6884  139.3438  157.0103 C.ar    1  UNL1        0.0844
      8 N         144.0539  138.6180  155.7495 N.ar    1  UNL1       -0.2437
      9 C         143.7390  137.1584  155.6062 C.ar    1  UNL1        0.0989
     10 C         143.0588  136.4247  156.7238 C.ar    1  UNL1        0.0223
     11 C         142.6934  137.1505  157.9845 C.ar    1  UNL1        0.0063
     12 C         143.0082  138.6100  158.1278 C.ar    1  UNL1        0.0566
     13 C         142.5613  139.1391  159.4584 C.ar    1  UNL1        0.1970
     14 O         141.9046  138.1430  160.3675 O.2     1  UNL1       -0.2865
     15 C         142.6842  140.5325  160.0000 C.ar    1  UNL1        0.0403
     16 C         142.1057  140.6370  161.3800 C.ar    1  UNL1        0.0191
     17 C         142.7440  134.9651  156.5805 C.ar    1  UNL1        0.0411
     18 C         143.2591  133.8619  157.4565 C.ar    1  UNL1        0.1217
     19 N         142.6922  132.5674  156.9535 N.ar    1  UNL1       -0.1676
     20 N         141.8267  132.8706  155.7665 N.ar    1  UNL1       -0.2473
     21 C         141.0633  131.8680  154.9529 C.3     1  UNL1        0.1538
     22 C         141.8587  134.3525  155.5360 C.ar    1  UNL1        0.0967
     23 N         141.5489  142.0545  163.4849 N.pl3   1  UNL1       -0.2052
     24 H         142.1261  142.3015  164.2432 H       1  UNL1        0.1748
     25 S         140.0909  141.7828  163.7096 S.O2    1  UNL1        0.1130
     26 O         139.7385  142.8848  162.7550 O.2     1  UNL1       -0.1379
     27 O         140.4434  140.6808  164.6641 O.2     1  UNL1       -0.1379
     28 N         138.6329  141.5110  163.9342 N.3     1  UNL1       -0.1413
     29 C         137.7106  142.6319  164.3124 C.3     1  UNL1        0.1163
     30 C         138.0973  140.1183  163.7807 C.3     1  UNL1        0.0998
     31 C         138.1056  139.4556  162.4351 C.3     1  UNL1        0.0512
     32 C         138.9907  138.2700  162.1885 C.3     1  UNL1        0.1438
     33 C         140.9366  137.2676  163.5881 C.3     1  UNL1        0.1741
     34 O         139.4667  137.4367  163.3414 O.3     1  UNL1       -0.3511
@<TRIPOS>BOND
     1    33    34    1
     2    34    32    1
     3    32    31    1
     4    31    30    1
     5    30    28    1
     6    28    29    1
     7    28    25    1
     8    25    26    2
     9    25    27    2
    10    25    23    1
    11    23     1    1
    12     1     2   ar
    13     2     3   ar
    14     3     4   ar
    15     4     5   ar
    16     5     6   ar
    17     6     7   ar
    18     7     8   ar
    19     8     9   ar
    20     9    10   ar
    21    10    17    1
    22    17    18   ar
    23    18    19   ar
    24    19    20   ar
    25    20    21    1
    26    20    22   ar
    27    10    11   ar
    28    11    12   ar
    29    12    13   ar
    30    13    14    2
    31    13    15   ar
    32    15    16   ar
    33    16     1   ar
    34    15     4   ar
    35    12     7   ar
    36    22    17   ar
    37    23    24    1
@<TRIPOS>MOLECULE
*****
 34 37 0 0 0
SMALL
GASTEIGER

@<TRIPOS>ATOM
      1 C         139.3302  142.5919  159.4218 C.ar    1  UNL1        0.0659
      2 C         140.2582  143.7058  159.0370 C.ar    1  UNL1        0.0159
      3 C         141.5015  143.4089  158.2521 C.ar    1  UNL1        0.0014
      4 C         141.8168  141.9981  157.8519 C.ar    1  UNL1        0.0032
      5 C         143.0989  141.9218  157.0771 C.ar    1  UNL1        0.0016
      6 C         143.7697  140.7127  156.4957 C.ar    1  UNL1        0.0192
      7 C         143.3241  139.2813  156.5455 C.ar    1  UNL1        0.0844
      8 N         144.2908  138.3813  155.8345 N.ar    1  UNL1       -0.2437
      9 C         144.0310  136.9055  155.7670 C.ar    1  UNL1        0.0989
     10 C         142.8044  136.3297  156.4105 C.ar    1  UNL1        0.0223
     11 C         141.8378  137.2296  157.1215 C.ar    1  UNL1        0.0063
     12 C         142.0976  138.7054  157.1890 C.ar    1  UNL1        0.0566
     13 C         141.0138  139.4189  157.9417 C.ar    1  UNL1        0.1970
     14 O         139.9089  138.5522  158.4690 O.2     1  UNL1       -0.2865
     15 C         140.8888  140.8842  158.2367 C.ar    1  UNL1        0.0403
     16 C         139.6456  141.1811  159.0216 C.ar    1  UNL1        0.0191
     17 C         142.5446  134.8539  156.3430 C.ar    1  UNL1        0.0411
     18 C         143.1094  133.8161  157.2671 C.ar    1  UNL1        0.1217
     19 N         142.5882  132.4776  156.8347 N.ar    1  UNL1       -0.1676
     20 N         141.7014  132.6882  155.6435 N.ar    1  UNL1       -0.2473
     21 C         140.9700  131.6181  154.8886 C.3     1  UNL1        0.1538
     22 C         141.6745  134.1569  155.3396 C.ar    1  UNL1        0.0967
     23 N         138.0869  142.8889  160.2067 N.pl3   1  UNL1       -0.2052
     24 H         137.2489  143.1058  159.7379 H       1  UNL1        0.1748
     25 S         138.1205  142.8552  161.7059 S.O2    1  UNL1        0.1130
     26 O         138.7252  144.2278  161.7232 O.2     1  UNL1       -0.1379
     27 O         137.5159  141.4826  161.6886 O.2     1  UNL1       -0.1379
     28 N         138.1541  142.8214  163.2052 N.3     1  UNL1       -0.1413
     29 C         137.8513  141.5457  163.9337 C.3     1  UNL1        0.1163
     30 C         138.4905  144.0635  163.9760 C.3     1  UNL1        0.0998
     31 C         139.4384  143.9926  165.1363 C.3     1  UNL1        0.0512
     32 C         140.8707  143.6077  164.9122 C.3     1  UNL1        0.1438
     33 C         142.6202  142.3761  163.4382 C.3     1  UNL1        0.1741
     34 O         141.3074  143.0888  163.5742 O.3     1  UNL1       -0.3511
@<TRIPOS>BOND
     1    33    34    1
     2    34    32    1
     3    32    31    1
     4    31    30    1
     5    30    28    1
     6    28    29    1
     7    28    25    1
     8    25    26    2
     9    25    27    2
    10    25    23    1
    11    23     1    1
    12     1     2   ar
    13     2     3   ar
    14     3     4   ar
    15     4     5   ar
    16     5     6   ar
    17     6     7   ar
    18     7     8   ar
    19     8     9   ar
    20     9    10   ar
    21    10    17    1
    22    17    18   ar
    23    18    19   ar
    24    19    20   ar
    25    20    21    1
    26    20    22   ar
    27    10    11   ar
    28    11    12   ar
    29    12    13   ar
    30    13    14    2
    31    13    15   ar
    32    15    16   ar
    33    16     1   ar
    34    15     4   ar
    35    12     7   ar
    36    22    17   ar
    37    23    24    1
@<TRIPOS>MOLECULE
*****
 34 37 0 0 0
SMALL
GASTEIGER

@<TRIPOS>ATOM
      1 C         143.1242  142.6459  158.6847 C.ar    1  UNL1        0.0659
      2 C         142.5642  143.8791  158.0401 C.ar    1  UNL1        0.0159
      3 C         141.6601  144.7880  158.8189 C.ar    1  UNL1        0.0014
      4 C         141.3161  144.4637  160.2424 C.ar    1  UNL1        0.0032
      5 C         140.4036  145.4964  160.8346 C.ar    1  UNL1        0.0016
      6 C         139.8257  145.5510  162.2178 C.ar    1  UNL1        0.0192
      7 C         140.0177  144.5864  163.3503 C.ar    1  UNL1        0.0844
      8 N         139.2572  145.0152  164.5702 N.ar    1  UNL1       -0.2437
      9 C         139.3140  144.1864  165.8191 C.ar    1  UNL1        0.0989
     10 C         140.1313  142.9288  165.8482 C.ar    1  UNL1        0.0223
     11 C         140.8917  142.5001  164.6284 C.ar    1  UNL1        0.0063
     12 C         140.8348  143.3289  163.3795 C.ar    1  UNL1        0.0566
     13 C         141.6620  142.7255  162.2832 C.ar    1  UNL1        0.1970
     14 O         142.3683  141.4481  162.6288 O.2     1  UNL1       -0.2865
     15 C         141.8762  143.2305  160.8871 C.ar    1  UNL1        0.0403
     16 C         142.7802  142.3216  160.1082 C.ar    1  UNL1        0.0191
     17 C         140.1881  142.1001  167.0972 C.ar    1  UNL1        0.0411
     18 C         139.8534  140.6418  167.2036 C.ar    1  UNL1        0.1217
     19 N         140.0480  140.2245  168.6312 N.ar    1  UNL1       -0.1676
     20 N         140.5030  141.4249  169.4071 N.ar    1  UNL1       -0.2473
     21 C         140.8164  141.4599  170.8735 C.3     1  UNL1        0.1538
     22 C         140.5896  142.5840  168.4590 C.ar    1  UNL1        0.0967
     23 N         144.0283  141.7370  157.9058 N.pl3   1  UNL1       -0.2052
     24 H         144.8797  142.0781  157.5480 H       1  UNL1        0.1748
     25 S         143.6351  140.3085  157.6721 S.O2    1  UNL1        0.1130
     26 O         142.6399  140.7511  156.6408 O.2     1  UNL1       -0.1379
     27 O         144.6304  139.8659  158.7034 O.2     1  UNL1       -0.1379
     28 N         143.2420  138.8799  157.4384 N.3     1  UNL1       -0.1413
     29 C         143.3557  138.2856  156.0659 C.3     1  UNL1        0.1163
     30 C         142.7352  138.0456  158.5773 C.3     1  UNL1        0.0998
     31 C         141.5572  138.5102  159.3813 C.3     1  UNL1        0.0512
     32 C         141.6069  138.4645  160.8798 C.3     1  UNL1        0.1438
     33 C         139.0315  138.1508  161.0182 C.3     1  UNL1        0.1741
     34 O         140.3856  138.0756  161.6591 O.3     1  UNL1       -0.3511
@<TRIPOS>BOND
     1    33    34    1
     2    34    32    1
     3    32    31    1
     4    31    30    1
     5    30    28    1
     6    28    29    1
     7    28    25    1
     8    25    26    2
     9    25    27    2
    10    25    23    1
    11    23     1    1
    12     1     2   ar
    13     2     3   ar
    14     3     4   ar
    15     4     5   ar
    16     5     6   ar
    17     6     7   ar
    18     7     8   ar
    19     8     9   ar
    20     9    10   ar
    21    10    17    1
    22    17    18   ar
    23    18    19   ar
    24    19    20   ar
    25    20    21    1
    26    20    22   ar
    27    10    11   ar
    28    11    12   ar
    29    12    13   ar
    30    13    14    2
    31    13    15   ar
    32    15    16   ar
    33    16     1   ar
    34    15     4   ar
    35    12     7   ar
    36    22    17   ar
    37    23    24    1
