@<TRIPOS>MOLECULE
*****
 24 26 0 0 0
SMALL
GASTEIGER

@<TRIPOS>ATOM
      1 C         141.3596  140.9512  167.2782 C.3     1  UNL1        0.0847
      2 N         141.0963  141.3483  168.7006 N.3     1  UNL1       -0.2676
      3 C         141.5124  140.4424  169.8214 C.3     1  UNL1        0.0896
      4 C         141.2492  140.8394  171.2437 C.3     1  UNL1        0.0862
      5 N         140.5700  142.1423  171.5452 N.3     1  UNL1       -0.2951
      6 C         140.1539  143.0482  170.4244 C.3     1  UNL1        0.0862
      7 C         140.4171  142.6512  169.0021 C.3     1  UNL1        0.0896
      8 H         141.2076  142.6772  172.1350 H       1  UNL1        0.1233
      9 C         140.5087  139.9047  166.6219 C.ar    1  UNL1       -0.0075
     10 C         139.0756  139.7377  167.0320 C.ar    1  UNL1       -0.0030
     11 C         138.2247  138.6911  166.3757 C.ar    1  UNL1       -0.0003
     12 C         138.8071  137.8114  165.3094 C.ar    1  UNL1       -0.0000
     13 C         140.2402  137.9783  164.8993 C.ar    1  UNL1       -0.0003
     14 C         141.0911  139.0249  165.5556 C.ar    1  UNL1       -0.0030
     15 C         142.4736  141.6008  166.5121 C.3     1  UNL1        0.0500
     16 C         143.2944  143.3947  164.8214 C.ar    1  UNL1        0.1620
     17 C         142.9989  144.5275  163.8836 C.ar    1  UNL1        0.1735
     18 F         144.1152  145.1885  163.1307 F       1  UNL1       -0.2010
     19 C         141.5870  144.9992  163.6988 C.ar    1  UNL1        0.0328
     20 C         140.4708  144.3382  164.4517 C.ar    1  UNL1        0.0022
     21 C         140.7663  143.2054  165.3895 C.ar    1  UNL1       -0.0011
     22 C         142.1781  142.7337  165.5743 C.ar    1  UNL1        0.0157
     23 C         145.3325  142.0145  163.9901 C.3     1  UNL1        0.2526
     24 O         144.7062  142.9229  165.0062 O.3     1  UNL1       -0.4695
@<TRIPOS>BOND
     1    23    24    1
     2    24    16    1
     3    16    17   ar
     4    17    18    1
     5    17    19   ar
     6    19    20   ar
     7    20    21   ar
     8    21    22   ar
     9    22    15    1
    10    15     1    1
    11     1     9    1
    12     9    10   ar
    13    10    11   ar
    14    11    12   ar
    15    12    13   ar
    16    13    14   ar
    17     1     2    1
    18     2     3    1
    19     3     4    1
    20     4     5    1
    21     5     6    1
    22     6     7    1
    23    22    16   ar
    24    14     9   ar
    25     7     2    1
    26     5     8    1
@<TRIPOS>MOLECULE
*****
 24 26 0 0 0
SMALL
GASTEIGER

@<TRIPOS>ATOM
      1 C         141.3518  140.8791  167.1731 C.3     1  UNL1        0.0847
      2 N         141.5911  140.8708  168.6539 N.3     1  UNL1       -0.2676
      3 C         140.8154  141.7959  169.5442 C.3     1  UNL1        0.0896
      4 C         141.0546  141.7876  171.0249 C.3     1  UNL1        0.0862
      5 N         142.0694  140.8541  171.6155 N.3     1  UNL1       -0.2951
      6 C         142.8451  139.9290  170.7252 C.3     1  UNL1        0.0862
      7 C         142.6059  139.9373  169.2445 C.3     1  UNL1        0.0896
      8 H         141.5746  140.2689  172.2886 H       1  UNL1        0.1233
      9 C         140.4762  139.8334  166.5489 C.ar    1  UNL1       -0.0075
     10 C         139.0534  139.6806  166.9986 C.ar    1  UNL1       -0.0030
     11 C         138.1777  138.6348  166.3743 C.ar    1  UNL1       -0.0003
     12 C         138.7249  137.7418  165.3005 C.ar    1  UNL1       -0.0000
     13 C         140.1478  137.8946  164.8509 C.ar    1  UNL1       -0.0003
     14 C         141.0234  138.9404  165.4750 C.ar    1  UNL1       -0.0030
     15 C         141.9883  141.9333  166.3165 C.3     1  UNL1        0.0500
     16 C         141.5885  143.4922  164.2769 C.ar    1  UNL1        0.1620
     17 C         140.7318  144.4853  163.5491 C.ar    1  UNL1        0.1735
     18 F         141.1889  145.0511  162.2373 F       1  UNL1       -0.2010
     19 C         139.4180  144.9127  164.1332 C.ar    1  UNL1        0.0328
     20 C         138.9609  144.3469  165.4451 C.ar    1  UNL1        0.0022
     21 C         139.8177  143.3538  166.1729 C.ar    1  UNL1       -0.0011
     22 C         141.1315  142.9264  165.5888 C.ar    1  UNL1        0.0157
     23 C         144.0590  144.0196  163.6697 C.3     1  UNL1        0.2526
     24 O         142.9024  143.0648  163.6928 O.3     1  UNL1       -0.4695
@<TRIPOS>BOND
     1    23    24    1
     2    24    16    1
     3    16    17   ar
     4    17    18    1
     5    17    19   ar
     6    19    20   ar
     7    20    21   ar
     8    21    22   ar
     9    22    15    1
    10    15     1    1
    11     1     9    1
    12     9    10   ar
    13    10    11   ar
    14    11    12   ar
    15    12    13   ar
    16    13    14   ar
    17     1     2    1
    18     2     3    1
    19     3     4    1
    20     4     5    1
    21     5     6    1
    22     6     7    1
    23    22    16   ar
    24    14     9   ar
    25     7     2    1
    26     5     8    1
@<TRIPOS>MOLECULE
*****
 24 26 0 0 0
SMALL
GASTEIGER

@<TRIPOS>ATOM
      1 C         140.3759  141.0827  167.4406 C.3     1  UNL1        0.0847
      2 N         140.9601  140.9582  168.8166 N.3     1  UNL1       -0.2676
      3 C         140.4079  141.7805  169.9431 C.3     1  UNL1        0.0896
      4 C         140.9921  141.6560  171.3190 C.3     1  UNL1        0.0862
      5 N         142.1285  140.7092  171.5684 N.3     1  UNL1       -0.2951
      6 C         142.6807  139.8870  170.4419 C.3     1  UNL1        0.0862
      7 C         142.0965  140.0115  169.0660 C.3     1  UNL1        0.0896
      8 H         141.8143  140.0543  172.2845 H       1  UNL1        0.1233
      9 C         139.8214  139.8728  166.7489 C.ar    1  UNL1       -0.0075
     10 C         140.5870  139.2322  165.6293 C.ar    1  UNL1       -0.0030
     11 C         140.0325  138.0222  164.9375 C.ar    1  UNL1       -0.0003
     12 C         138.7124  137.4528  165.3655 C.ar    1  UNL1       -0.0000
     13 C         137.9468  138.0933  166.4851 C.ar    1  UNL1       -0.0003
     14 C         138.5013  139.3033  167.1768 C.ar    1  UNL1       -0.0030
     15 C         140.3461  142.4173  166.7564 C.3     1  UNL1        0.0500
     16 C         141.2707  143.7992  164.7600 C.ar    1  UNL1        0.1620
     17 C         142.4215  144.2257  163.8976 C.ar    1  UNL1        0.1735
     18 F         142.1952  145.1811  162.7636 F       1  UNL1       -0.2010
     19 C         143.7985  143.6967  164.1692 C.ar    1  UNL1        0.0328
     20 C         144.0249  142.7413  165.3032 C.ar    1  UNL1        0.0022
     21 C         142.8741  142.3148  166.1656 C.ar    1  UNL1       -0.0011
     22 C         141.4970  142.8438  165.8940 C.ar    1  UNL1        0.0157
     23 C         139.1238  143.8394  163.2974 C.3     1  UNL1        0.2526
     24 O         139.8935  144.3282  164.4884 O.3     1  UNL1       -0.4695
@<TRIPOS>BOND
     1    23    24    1
     2    24    16    1
     3    16    17   ar
     4    17    18    1
     5    17    19   ar
     6    19    20   ar
     7    20    21   ar
     8    21    22   ar
     9    22    15    1
    10    15     1    1
    11     1     9    1
    12     9    10   ar
    13    10    11   ar
    14    11    12   ar
    15    12    13   ar
    16    13    14   ar
    17     1     2    1
    18     2     3    1
    19     3     4    1
    20     4     5    1
    21     5     6    1
    22     6     7    1
    23    22    16   ar
    24    14     9   ar
    25     7     2    1
    26     5     8    1
@<TRIPOS>MOLECULE
*****
 24 26 0 0 0
SMALL
GASTEIGER

@<TRIPOS>ATOM
      1 C         141.0174  142.2161  166.9443 C.3     1  UNL1        0.0847
      2 N         140.7567  141.8125  168.3653 N.3     1  UNL1       -0.2676
      3 C         140.3827  142.8492  169.3828 C.3     1  UNL1        0.0896
      4 C         140.1220  142.4457  170.8038 C.3     1  UNL1        0.0862
      5 N         140.2354  141.0055  171.2073 N.3     1  UNL1       -0.2951
      6 C         140.6095  139.9687  170.1898 C.3     1  UNL1        0.0862
      7 C         140.8701  140.3722  168.7688 C.3     1  UNL1        0.0896
      8 H         139.3280  140.7332  171.5851 H       1  UNL1        0.1233
      9 C         139.8941  142.2296  165.9504 C.ar    1  UNL1       -0.0075
     10 C         139.2742  140.9395  165.5016 C.ar    1  UNL1       -0.0030
     11 C         138.1508  140.9530  164.5076 C.ar    1  UNL1       -0.0003
     12 C         137.6474  142.2566  163.9625 C.ar    1  UNL1       -0.0000
     13 C         138.2673  143.5467  164.4113 C.ar    1  UNL1       -0.0003
     14 C         139.3906  143.5332  165.4052 C.ar    1  UNL1       -0.0030
     15 C         142.4014  142.6061  166.5173 C.3     1  UNL1        0.0500
     16 C         144.3158  142.1618  164.8179 C.ar    1  UNL1        0.1620
     17 C         145.1561  141.2015  164.0295 C.ar    1  UNL1        0.1735
     18 F         146.2302  141.7177  163.1186 F       1  UNL1       -0.2010
     19 C         144.9221  139.7250  164.1519 C.ar    1  UNL1        0.0328
     20 C         143.8480  139.2088  165.0628 C.ar    1  UNL1        0.0022
     21 C         143.0077  140.1691  165.8513 C.ar    1  UNL1       -0.0011
     22 C         143.2417  141.6457  165.7288 C.ar    1  UNL1        0.0157
     23 C         143.9342  144.4039  163.5618 C.3     1  UNL1        0.2526
     24 O         144.5497  143.6385  164.6955 O.3     1  UNL1       -0.4695
@<TRIPOS>BOND
     1    23    24    1
     2    24    16    1
     3    16    17   ar
     4    17    18    1
     5    17    19   ar
     6    19    20   ar
     7    20    21   ar
     8    21    22   ar
     9    22    15    1
    10    15     1    1
    11     1     9    1
    12     9    10   ar
    13    10    11   ar
    14    11    12   ar
    15    12    13   ar
    16    13    14   ar
    17     1     2    1
    18     2     3    1
    19     3     4    1
    20     4     5    1
    21     5     6    1
    22     6     7    1
    23    22    16   ar
    24    14     9   ar
    25     7     2    1
    26     5     8    1
@<TRIPOS>MOLECULE
*****
 24 26 0 0 0
SMALL
GASTEIGER

@<TRIPOS>ATOM
      1 C         140.8950  140.7329  165.3151 C.3     1  UNL1        0.0847
      2 N         141.0091  139.5820  164.3597 N.3     1  UNL1       -0.2676
      3 C         141.1471  139.8395  162.8884 C.3     1  UNL1        0.0896
      4 C         141.2612  138.6888  161.9331 C.3     1  UNL1        0.0862
      5 N         141.2373  137.2805  162.4490 N.3     1  UNL1       -0.2951
      6 C         141.0992  137.0230  163.9203 C.3     1  UNL1        0.0862
      7 C         140.9851  138.1738  164.8756 C.3     1  UNL1        0.0896
      8 H         142.1108  136.8441  162.1544 H       1  UNL1        0.1233
      9 C         140.0536  141.9226  164.9591 C.ar    1  UNL1       -0.0075
     10 C         140.6910  143.2709  164.7986 C.ar    1  UNL1       -0.0030
     11 C         139.8496  144.4606  164.4426 C.ar    1  UNL1       -0.0003
     12 C         138.3709  144.3020  164.2470 C.ar    1  UNL1       -0.0000
     13 C         137.7335  142.9536  164.4075 C.ar    1  UNL1       -0.0003
     14 C         138.5749  141.7639  164.7635 C.ar    1  UNL1       -0.0030
     15 C         141.6222  140.6939  166.6264 C.3     1  UNL1        0.0500
     16 C         139.8440  140.4347  168.5029 C.ar    1  UNL1        0.1620
     17 C         139.1804  140.9530  169.7442 C.ar    1  UNL1        0.1735
     18 F         138.0659  140.1754  170.3792 F       1  UNL1       -0.2010
     19 C         139.6312  142.2488  170.3504 C.ar    1  UNL1        0.0328
     20 C         140.7456  143.0264  169.7153 C.ar    1  UNL1        0.0022
     21 C         141.4093  142.5081  168.4740 C.ar    1  UNL1       -0.0011
     22 C         140.9585  141.2123  167.8678 C.ar    1  UNL1        0.0157
     23 C         138.0787  139.0641  167.1780 C.3     1  UNL1        0.2526
     24 O         139.3933  139.1388  167.8966 O.3     1  UNL1       -0.4695
@<TRIPOS>BOND
     1    23    24    1
     2    24    16    1
     3    16    17   ar
     4    17    18    1
     5    17    19   ar
     6    19    20   ar
     7    20    21   ar
     8    21    22   ar
     9    22    15    1
    10    15     1    1
    11     1     9    1
    12     9    10   ar
    13    10    11   ar
    14    11    12   ar
    15    12    13   ar
    16    13    14   ar
    17     1     2    1
    18     2     3    1
    19     3     4    1
    20     4     5    1
    21     5     6    1
    22     6     7    1
    23    22    16   ar
    24    14     9   ar
    25     7     2    1
    26     5     8    1
@<TRIPOS>MOLECULE
*****
 24 26 0 0 0
SMALL
GASTEIGER

@<TRIPOS>ATOM
      1 C         141.9962  141.0037  166.8123 C.3     1  UNL1        0.0847
      2 N         142.2156  141.1434  168.2896 N.3     1  UNL1       -0.2676
      3 C         142.0595  142.4823  168.9477 C.3     1  UNL1        0.0896
      4 C         142.2789  142.6221  170.4249 C.3     1  UNL1        0.0862
      5 N         142.6544  141.4230  171.2441 N.3     1  UNL1       -0.2951
      6 C         142.8104  140.0841  170.5860 C.3     1  UNL1        0.0862
      7 C         142.5911  139.9443  169.1088 C.3     1  UNL1        0.0896
      8 H         141.9344  141.3176  171.9589 H       1  UNL1        0.1233
      9 C         143.1318  141.2358  165.8602 C.ar    1  UNL1       -0.0075
     10 C         143.6629  142.6228  165.6501 C.ar    1  UNL1       -0.0030
     11 C         144.7985  142.8549  164.6979 C.ar    1  UNL1       -0.0003
     12 C         145.4029  141.7000  163.9558 C.ar    1  UNL1       -0.0000
     13 C         144.8718  140.3130  164.1659 C.ar    1  UNL1       -0.0003
     14 C         143.7363  140.0809  165.1180 C.ar    1  UNL1       -0.0030
     15 C         140.6412  140.6319  166.2872 C.3     1  UNL1        0.0500
     16 C         138.6565  141.2665  164.7353 C.ar    1  UNL1        0.1620
     17 C         137.7857  142.3101  164.1009 C.ar    1  UNL1        0.1735
     18 F         136.6717  141.9009  163.1835 F       1  UNL1       -0.2010
     19 C         138.0288  143.7629  164.3840 C.ar    1  UNL1        0.0328
     20 C         139.1427  144.1721  165.3015 C.ar    1  UNL1        0.0022
     21 C         140.0135  143.1284  165.9359 C.ar    1  UNL1       -0.0011
     22 C         139.7704  141.6756  165.6528 C.ar    1  UNL1        0.0157
     23 C         138.8913  139.2101  163.1648 C.3     1  UNL1        0.2526
     24 O         138.4133  139.8136  164.4522 O.3     1  UNL1       -0.4695
@<TRIPOS>BOND
     1    23    24    1
     2    24    16    1
     3    16    17   ar
     4    17    18    1
     5    17    19   ar
     6    19    20   ar
     7    20    21   ar
     8    21    22   ar
     9    22    15    1
    10    15     1    1
    11     1     9    1
    12     9    10   ar
    13    10    11   ar
    14    11    12   ar
    15    12    13   ar
    16    13    14   ar
    17     1     2    1
    18     2     3    1
    19     3     4    1
    20     4     5    1
    21     5     6    1
    22     6     7    1
    23    22    16   ar
    24    14     9   ar
    25     7     2    1
    26     5     8    1
@<TRIPOS>MOLECULE
*****
 24 26 0 0 0
SMALL
GASTEIGER

@<TRIPOS>ATOM
      1 C         141.4145  141.5179  167.2439 C.3     1  UNL1        0.0847
      2 N         141.1732  141.2061  168.6912 N.3     1  UNL1       -0.2676
      3 C         142.1745  141.6263  169.7260 C.3     1  UNL1        0.0896
      4 C         141.9332  141.3145  171.1732 C.3     1  UNL1        0.0862
      5 N         140.6906  140.5824  171.5856 N.3     1  UNL1       -0.2951
      6 C         139.6893  140.1622  170.5508 C.3     1  UNL1        0.0862
      7 C         139.9306  140.4740  169.1036 C.3     1  UNL1        0.0896
      8 H         140.1980  141.1861  172.2439 H       1  UNL1        0.1233
      9 C         142.4318  140.7354  166.4676 C.ar    1  UNL1       -0.0075
     10 C         143.2653  141.4172  165.4234 C.ar    1  UNL1       -0.0030
     11 C         144.2827  140.6346  164.6470 C.ar    1  UNL1       -0.0003
     12 C         144.4664  139.1702  164.9149 C.ar    1  UNL1       -0.0000
     13 C         143.6329  138.4884  165.9592 C.ar    1  UNL1       -0.0003
     14 C         142.6157  139.2709  166.7355 C.ar    1  UNL1       -0.0030
     15 C         140.6385  142.6123  166.5730 C.3     1  UNL1        0.0500
     16 C         139.1371  143.3151  164.5725 C.ar    1  UNL1        0.1620
     17 C         138.0942  142.9762  163.5491 C.ar    1  UNL1        0.1735
     18 F         137.6358  144.0179  162.5720 F       1  UNL1       -0.2010
     19 C         137.5097  141.5956  163.5028 C.ar    1  UNL1        0.0328
     20 C         137.9681  140.5538  164.4798 C.ar    1  UNL1        0.0022
     21 C         139.0110  140.8927  165.5032 C.ar    1  UNL1       -0.0011
     22 C         139.5956  142.2734  165.5496 C.ar    1  UNL1        0.0157
     23 C         140.8580  145.0600  163.7100 C.3     1  UNL1        0.2526
     24 O         139.7217  144.6958  164.6189 O.3     1  UNL1       -0.4695
@<TRIPOS>BOND
     1    23    24    1
     2    24    16    1
     3    16    17   ar
     4    17    18    1
     5    17    19   ar
     6    19    20   ar
     7    20    21   ar
     8    21    22   ar
     9    22    15    1
    10    15     1    1
    11     1     9    1
    12     9    10   ar
    13    10    11   ar
    14    11    12   ar
    15    12    13   ar
    16    13    14   ar
    17     1     2    1
    18     2     3    1
    19     3     4    1
    20     4     5    1
    21     5     6    1
    22     6     7    1
    23    22    16   ar
    24    14     9   ar
    25     7     2    1
    26     5     8    1
@<TRIPOS>MOLECULE
*****
 24 26 0 0 0
SMALL
GASTEIGER

@<TRIPOS>ATOM
      1 C         140.5343  140.3108  167.2653 C.3     1  UNL1        0.0847
      2 N         140.6297  141.1402  168.5116 N.3     1  UNL1       -0.2676
      3 C         140.5144  142.6335  168.4293 C.3     1  UNL1        0.0896
      4 C         140.6098  143.4628  169.6755 C.3     1  UNL1        0.0862
      5 N         140.8205  142.7989  171.0039 N.3     1  UNL1       -0.2951
      6 C         140.9358  141.3056  171.0862 C.3     1  UNL1        0.0862
      7 C         140.8404  140.4762  169.8400 C.3     1  UNL1        0.0896
      8 H         140.0334  143.0665  171.5949 H       1  UNL1        0.1233
      9 C         141.7434  140.1171  166.3989 C.ar    1  UNL1       -0.0075
     10 C         142.5751  138.8766  166.5384 C.ar    1  UNL1       -0.0030
     11 C         143.7842  138.6830  165.6719 C.ar    1  UNL1       -0.0003
     12 C         144.1615  139.7298  164.6661 C.ar    1  UNL1       -0.0000
     13 C         143.3298  140.9703  164.5266 C.ar    1  UNL1       -0.0003
     14 C         142.1208  141.1640  165.3930 C.ar    1  UNL1       -0.0030
     15 C         139.2298  139.6752  166.8855 C.3     1  UNL1        0.0500
     16 C         138.3736  140.3493  164.5270 C.ar    1  UNL1        0.1620
     17 C         138.0997  139.9975  163.0948 C.ar    1  UNL1        0.1735
     18 F         137.5174  141.0236  162.1685 F       1  UNL1       -0.2010
     19 C         138.4081  138.6195  162.5889 C.ar    1  UNL1        0.0328
     20 C         138.9905  137.5934  163.5152 C.ar    1  UNL1        0.0022
     21 C         139.2644  137.9452  164.9474 C.ar    1  UNL1       -0.0011
     22 C         138.9559  139.3232  165.4532 C.ar    1  UNL1        0.0157
     23 C         138.9311  142.8848  164.6320 C.3     1  UNL1        0.2526
     24 O         138.0652  141.7274  165.0329 O.3     1  UNL1       -0.4695
@<TRIPOS>BOND
     1    23    24    1
     2    24    16    1
     3    16    17   ar
     4    17    18    1
     5    17    19   ar
     6    19    20   ar
     7    20    21   ar
     8    21    22   ar
     9    22    15    1
    10    15     1    1
    11     1     9    1
    12     9    10   ar
    13    10    11   ar
    14    11    12   ar
    15    12    13   ar
    16    13    14   ar
    17     1     2    1
    18     2     3    1
    19     3     4    1
    20     4     5    1
    21     5     6    1
    22     6     7    1
    23    22    16   ar
    24    14     9   ar
    25     7     2    1
    26     5     8    1
@<TRIPOS>MOLECULE
*****
 24 26 0 0 0
SMALL
GASTEIGER

@<TRIPOS>ATOM
      1 C         140.8184  142.1020  166.5243 C.3     1  UNL1        0.0847
      2 N         139.6511  141.8018  165.6313 N.3     1  UNL1       -0.2676
      3 C         139.2381  140.3802  165.3892 C.3     1  UNL1        0.0896
      4 C         138.0710  140.0800  164.4962 C.3     1  UNL1        0.0862
      5 N         137.3168  141.2013  163.8453 N.3     1  UNL1       -0.2951
      6 C         137.7298  142.6229  164.0873 C.3     1  UNL1        0.0862
      7 C         138.8970  142.9231  164.9803 C.3     1  UNL1        0.0896
      8 H         136.3470  141.1204  164.1509 H       1  UNL1        0.1233
      9 C         140.7059  141.8848  168.0042 C.ar    1  UNL1       -0.0075
     10 C         140.8597  140.5057  168.5737 C.ar    1  UNL1       -0.0030
     11 C         140.7472  140.2885  170.0537 C.ar    1  UNL1       -0.0003
     12 C         140.4807  141.4505  170.9641 C.ar    1  UNL1       -0.0000
     13 C         140.3268  142.8296  170.3946 C.ar    1  UNL1       -0.0003
     14 C         140.4394  143.0468  168.9147 C.ar    1  UNL1       -0.0030
     15 C         142.0982  142.6194  165.9374 C.3     1  UNL1        0.0500
     16 C         144.2629  142.1772  164.5704 C.ar    1  UNL1        0.1620
     17 C         145.2708  141.2196  164.0073 C.ar    1  UNL1        0.1735
     18 F         146.4276  141.7351  163.2034 F       1  UNL1       -0.2010
     19 C         145.1220  139.7466  164.2482 C.ar    1  UNL1        0.0328
     20 C         143.9653  139.2312  165.0521 C.ar    1  UNL1        0.0022
     21 C         142.9574  140.1887  165.6152 C.ar    1  UNL1       -0.0011
     22 C         143.1062  141.6617  165.3743 C.ar    1  UNL1        0.0157
     23 C         144.0634  144.2303  162.9908 C.3     1  UNL1        0.2526
     24 O         144.4116  143.6503  164.3296 O.3     1  UNL1       -0.4695
@<TRIPOS>BOND
     1    23    24    1
     2    24    16    1
     3    16    17   ar
     4    17    18    1
     5    17    19   ar
     6    19    20   ar
     7    20    21   ar
     8    21    22   ar
     9    22    15    1
    10    15     1    1
    11     1     9    1
    12     9    10   ar
    13    10    11   ar
    14    11    12   ar
    15    12    13   ar
    16    13    14   ar
    17     1     2    1
    18     2     3    1
    19     3     4    1
    20     4     5    1
    21     5     6    1
    22     6     7    1
    23    22    16   ar
    24    14     9   ar
    25     7     2    1
    26     5     8    1
