@<TRIPOS>MOLECULE
*****
 38 41 0 0 0
SMALL
GASTEIGER

@<TRIPOS>ATOM
      1 C         139.8904  138.4567  162.4060 C.ar    1  UNL1        0.0504
      2 C         138.8615  138.4078  161.3157 C.ar    1  UNL1        0.0147
      3 C         139.2867  138.4838  159.8792 C.ar    1  UNL1        0.0014
      4 C         140.7409  138.6087  159.5331 C.ar    1  UNL1        0.0043
      5 C         141.1661  138.6848  158.0966 C.ar    1  UNL1        0.0208
      6 C         142.6202  138.8097  157.7505 C.ar    1  UNL1        0.1003
      7 N         143.6492  138.8585  158.8409 N.ar    1  UNL1       -0.2291
      8 C         143.2240  138.7825  160.2774 C.ar    1  UNL1        0.1321
      9 C         141.7698  138.6576  160.6234 C.ar    1  UNL1        0.0330
     10 C         141.3446  138.5816  162.0599 C.ar    1  UNL1        0.0174
     11 C         138.6806  139.5039  164.4529 C.2     1  UNL1        0.2261
     12 O         138.3212  140.7033  163.6268 O.2     1  UNL1       -0.2748
     13 N         139.4652  138.3806  163.8425 N.am    1  UNL1       -0.2839
     14 H         139.7011  137.5934  164.3846 H       1  UNL1        0.1549
     15 C         138.2554  139.4278  165.8893 C.3     1  UNL1        0.0854
     16 C         139.2836  139.4868  166.9800 C.3     1  UNL1        0.0096
     17 C         139.8565  140.8080  167.3998 C.3     1  UNL1        0.0005
     18 C         140.9144  141.4662  166.5646 C.3     1  UNL1        0.0005
     19 C         140.7730  142.9077  166.1745 C.3     1  UNL1        0.0096
     20 C         140.5605  143.2781  164.7366 C.3     1  UNL1        0.0871
     21 O         138.7343  145.0559  165.2413 O.2     1  UNL1       -0.2730
     22 C         139.3230  144.0212  164.3286 C.2     1  UNL1        0.2443
     23 N         138.6743  143.7297  163.0080 N.am    1  UNL1       -0.1970
     24 O         137.4368  144.4727  162.5999 O.3     1  UNL1       -0.2952
     25 H         139.0607  143.0506  162.4090 H       1  UNL1        0.1822
     26 H         137.1912  145.0997  163.2981 H       1  UNL1        0.2414
     27 N         144.2529  138.8313  161.3677 N.pl3   1  UNL1       -0.2979
     28 H         144.9178  138.1100  161.4497 H       1  UNL1        0.1536
     29 C         144.2688  139.9794  162.3331 C.ar    1  UNL1        0.0494
     30 C         144.5782  139.7376  163.7808 C.ar    1  UNL1        0.0146
     31 C         144.5941  140.8855  164.7462 C.ar    1  UNL1        0.0013
     32 C         144.3006  142.2752  164.2639 C.ar    1  UNL1        0.0001
     33 C         144.3165  143.4232  165.2293 C.ar    1  UNL1        0.0000
     34 C         144.0230  144.8128  164.7469 C.ar    1  UNL1        0.0000
     35 C         143.7136  145.0546  163.2992 C.ar    1  UNL1        0.0000
     36 C         143.6977  143.9067  162.3339 C.ar    1  UNL1        0.0000
     37 C         143.9912  142.5169  162.8162 C.ar    1  UNL1        0.0012
     38 C         143.9753  141.3690  161.8508 C.ar    1  UNL1        0.0146
@<TRIPOS>BOND
     1    21    22    2
     2    22    20    1
     3    20    19    1
     4    19    18    1
     5    18    17    1
     6    17    16    1
     7    16    15    1
     8    15    11    1
     9    11    12    2
    10    11    13   am
    11    13     1    1
    12     1     2   ar
    13     2     3   ar
    14     3     4   ar
    15     4     5   ar
    16     5     6   ar
    17     6     7   ar
    18     7     8   ar
    19     8    27    1
    20    27    29    1
    21    29    30   ar
    22    30    31   ar
    23    31    32   ar
    24    32    33   ar
    25    33    34   ar
    26    34    35   ar
    27    35    36   ar
    28    36    37   ar
    29    37    38   ar
    30     8     9   ar
    31     9    10   ar
    32    22    23   am
    33    23    24    1
    34    10     1   ar
    35     9     4   ar
    36    38    29   ar
    37    37    32   ar
    38    13    14    1
    39    27    28    1
    40    23    25    1
    41    24    26    1
@<TRIPOS>MOLECULE
*****
 38 41 0 0 0
SMALL
GASTEIGER

@<TRIPOS>ATOM
      1 C         140.4800  144.1035  160.7417 C.ar    1  UNL1        0.0504
      2 C         140.0870  143.9062  159.3076 C.ar    1  UNL1        0.0147
      3 C         141.0993  143.4214  158.3125 C.ar    1  UNL1        0.0014
      4 C         142.5045  143.1339  158.7514 C.ar    1  UNL1        0.0043
      5 C         143.5167  142.6492  157.7562 C.ar    1  UNL1        0.0208
      6 C         144.9219  142.3617  158.1952 C.ar    1  UNL1        0.1003
      7 N         145.3149  142.5589  159.6293 N.ar    1  UNL1       -0.2291
      8 C         144.3027  143.0437  160.6245 C.ar    1  UNL1        0.1321
      9 C         142.8974  143.3312  160.1855 C.ar    1  UNL1        0.0330
     10 C         141.8852  143.8160  161.1806 C.ar    1  UNL1        0.0174
     11 C         138.5165  143.6181  162.3724 C.2     1  UNL1        0.2261
     12 O         138.5776  142.1630  162.0129 O.2     1  UNL1       -0.2748
     13 N         139.4677  144.5883  161.7368 N.am    1  UNL1       -0.2839
     14 H         139.4276  145.5432  161.9728 H       1  UNL1        0.1549
     15 C         137.5043  144.1028  163.3676 C.3     1  UNL1        0.0854
     16 C         137.8242  144.0834  164.8330 C.3     1  UNL1        0.0096
     17 C         139.2526  144.0324  165.2881 C.3     1  UNL1        0.0005
     18 C         139.8979  142.7117  165.5867 C.3     1  UNL1        0.0005
     19 C         139.1043  141.4446  165.4650 C.3     1  UNL1        0.0096
     20 C         139.2979  140.3398  166.4610 C.3     1  UNL1        0.0871
     21 O         138.4932  138.2798  165.0975 O.2     1  UNL1       -0.2730
     22 C         138.4777  139.0879  166.3612 C.2     1  UNL1        0.2443
     23 N         137.6420  138.6440  167.5251 N.am    1  UNL1       -0.1970
     24 O         136.8218  137.3921  167.4253 O.3     1  UNL1       -0.2952
     25 H         137.6319  139.1744  168.3545 H       1  UNL1        0.1822
     26 H         136.9446  136.9940  166.5493 H       1  UNL1        0.2414
     27 N         144.6956  143.2410  162.0586 N.pl3   1  UNL1       -0.2979
     28 H         145.2193  144.0322  162.3211 H       1  UNL1        0.1536
     29 C         144.2907  142.2326  163.0927 C.ar    1  UNL1        0.0494
     30 C         144.2711  140.7726  162.7493 C.ar    1  UNL1        0.0146
     31 C         143.8662  139.7643  163.7833 C.ar    1  UNL1        0.0013
     32 C         143.4810  140.2160  165.1608 C.ar    1  UNL1        0.0001
     33 C         143.0761  139.2077  166.1950 C.ar    1  UNL1        0.0000
     34 C         142.6908  139.6594  167.5724 C.ar    1  UNL1        0.0000
     35 C         142.7104  141.1194  167.9158 C.ar    1  UNL1        0.0000
     36 C         143.1153  142.1277  166.8818 C.ar    1  UNL1        0.0000
     37 C         143.5006  141.6760  165.5042 C.ar    1  UNL1        0.0012
     38 C         143.9054  142.6844  164.4702 C.ar    1  UNL1        0.0146
@<TRIPOS>BOND
     1    21    22    2
     2    22    20    1
     3    20    19    1
     4    19    18    1
     5    18    17    1
     6    17    16    1
     7    16    15    1
     8    15    11    1
     9    11    12    2
    10    11    13   am
    11    13     1    1
    12     1     2   ar
    13     2     3   ar
    14     3     4   ar
    15     4     5   ar
    16     5     6   ar
    17     6     7   ar
    18     7     8   ar
    19     8    27    1
    20    27    29    1
    21    29    30   ar
    22    30    31   ar
    23    31    32   ar
    24    32    33   ar
    25    33    34   ar
    26    34    35   ar
    27    35    36   ar
    28    36    37   ar
    29    37    38   ar
    30     8     9   ar
    31     9    10   ar
    32    22    23   am
    33    23    24    1
    34    10     1   ar
    35     9     4   ar
    36    38    29   ar
    37    37    32   ar
    38    13    14    1
    39    27    28    1
    40    23    25    1
    41    24    26    1
@<TRIPOS>MOLECULE
*****
 38 41 0 0 0
SMALL
GASTEIGER

@<TRIPOS>ATOM
      1 C         140.0805  137.9824  162.0640 C.ar    1  UNL1        0.0504
      2 C         139.0755  138.0049  160.9508 C.ar    1  UNL1        0.0147
      3 C         139.5042  138.3703  159.5606 C.ar    1  UNL1        0.0014
      4 C         140.9379  138.7133  159.2836 C.ar    1  UNL1        0.0043
      5 C         141.3666  139.0787  157.8934 C.ar    1  UNL1        0.0208
      6 C         142.8003  139.4216  157.6165 C.ar    1  UNL1        0.1003
      7 N         143.8055  139.3992  158.7297 N.ar    1  UNL1       -0.2291
      8 C         143.3768  139.0338  160.1199 C.ar    1  UNL1        0.1321
      9 C         141.9429  138.6908  160.3969 C.ar    1  UNL1        0.0330
     10 C         141.5142  138.3254  161.7871 C.ar    1  UNL1        0.0174
     11 C         138.9200  138.6161  164.3004 C.2     1  UNL1        0.2261
     12 O         138.6168  139.9808  163.7564 O.2     1  UNL1       -0.2748
     13 N         139.6518  137.6170  163.4542 N.am    1  UNL1       -0.2839
     14 H         139.8508  136.7213  163.8113 H       1  UNL1        0.1549
     15 C         138.4913  138.2507  165.6907 C.3     1  UNL1        0.0854
     16 C         138.4256  139.3042  166.7565 C.3     1  UNL1        0.0096
     17 C         139.6408  140.1225  167.0781 C.3     1  UNL1        0.0005
     18 C         140.3094  139.9797  168.4132 C.3     1  UNL1        0.0005
     19 C         140.0240  140.9685  169.5045 C.3     1  UNL1        0.0096
     20 C         141.1152  141.8670  170.0067 C.3     1  UNL1        0.0871
     21 O         143.6866  141.9035  169.6366 O.2     1  UNL1       -0.2730
     22 C         142.4768  141.3060  170.2920 C.2     1  UNL1        0.2443
     23 N         142.6286  140.1476  171.2327 N.am    1  UNL1       -0.1970
     24 O         143.9902  139.5866  171.5181 O.3     1  UNL1       -0.2952
     25 H         141.8347  139.7554  171.6629 H       1  UNL1        0.1822
     26 H         144.6561  140.0838  171.0177 H       1  UNL1        0.2414
     27 N         144.3818  139.0113  161.2332 N.pl3   1  UNL1       -0.2979
     28 H         145.0243  138.2685  161.3014 H       1  UNL1        0.1536
     29 C         144.4079  140.1206  162.2426 C.ar    1  UNL1        0.0494
     30 C         144.7921  139.8326  163.6637 C.ar    1  UNL1        0.0146
     31 C         144.8183  140.9418  164.6731 C.ar    1  UNL1        0.0013
     32 C         144.4601  142.3390  164.2614 C.ar    1  UNL1        0.0001
     33 C         144.4862  143.4483  165.2708 C.ar    1  UNL1        0.0000
     34 C         144.1280  144.8455  164.8591 C.ar    1  UNL1        0.0000
     35 C         143.7438  145.1335  163.4381 C.ar    1  UNL1        0.0000
     36 C         143.7177  144.0243  162.4287 C.ar    1  UNL1        0.0000
     37 C         144.0758  142.6270  162.8403 C.ar    1  UNL1        0.0012
     38 C         144.0497  141.5178  161.8309 C.ar    1  UNL1        0.0146
@<TRIPOS>BOND
     1    21    22    2
     2    22    20    1
     3    20    19    1
     4    19    18    1
     5    18    17    1
     6    17    16    1
     7    16    15    1
     8    15    11    1
     9    11    12    2
    10    11    13   am
    11    13     1    1
    12     1     2   ar
    13     2     3   ar
    14     3     4   ar
    15     4     5   ar
    16     5     6   ar
    17     6     7   ar
    18     7     8   ar
    19     8    27    1
    20    27    29    1
    21    29    30   ar
    22    30    31   ar
    23    31    32   ar
    24    32    33   ar
    25    33    34   ar
    26    34    35   ar
    27    35    36   ar
    28    36    37   ar
    29    37    38   ar
    30     8     9   ar
    31     9    10   ar
    32    22    23   am
    33    23    24    1
    34    10     1   ar
    35     9     4   ar
    36    38    29   ar
    37    37    32   ar
    38    13    14    1
    39    27    28    1
    40    23    25    1
    41    24    26    1
@<TRIPOS>MOLECULE
*****
 38 41 0 0 0
SMALL
GASTEIGER

@<TRIPOS>ATOM
      1 C         138.9520  139.1065  165.2460 C.ar    1  UNL1        0.0504
      2 C         138.0418  138.3927  166.2009 C.ar    1  UNL1        0.0147
      3 C         138.0213  138.7808  167.6497 C.ar    1  UNL1        0.0014
      4 C         138.9110  139.8828  168.1436 C.ar    1  UNL1        0.0043
      5 C         138.8905  140.2710  169.5923 C.ar    1  UNL1        0.0208
      6 C         139.7802  141.3729  170.0862 C.ar    1  UNL1        0.1003
      7 N         140.6905  142.0868  169.1313 N.ar    1  UNL1       -0.2291
      8 C         140.7110  141.6987  167.6826 C.ar    1  UNL1        0.1321
      9 C         139.8212  140.5966  167.1887 C.ar    1  UNL1        0.0330
     10 C         139.8418  140.2085  165.7399 C.ar    1  UNL1        0.0174
     11 C         138.1975  139.5210  162.7947 C.2     1  UNL1        0.2261
     12 O         137.4019  140.7118  163.2410 O.2     1  UNL1       -0.2748
     13 N         138.9725  138.7184  163.7973 N.am    1  UNL1       -0.2839
     14 H         139.4947  137.9368  163.5044 H       1  UNL1        0.1549
     15 C         138.2180  139.1328  161.3460 C.3     1  UNL1        0.0854
     16 C         139.2888  139.6671  160.4415 C.3     1  UNL1        0.0096
     17 C         140.0793  140.8756  160.8473 C.3     1  UNL1        0.0005
     18 C         141.5309  140.7389  161.1994 C.3     1  UNL1        0.0005
     19 C         141.9370  140.4812  162.6202 C.3     1  UNL1        0.0096
     20 C         142.4792  139.1391  163.0136 C.3     1  UNL1        0.0871
     21 O         141.0110  137.1434  162.2316 O.2     1  UNL1       -0.2730
     22 C         142.2684  137.9535  162.1192 C.2     1  UNL1        0.2443
     23 N         143.3150  137.5781  161.1125 N.am    1  UNL1       -0.1970
     24 O         143.1043  136.3925  160.2180 O.3     1  UNL1       -0.2952
     25 H         144.1403  138.1098  161.0387 H       1  UNL1        0.1822
     26 H         142.2478  135.9840  160.4191 H       1  UNL1        0.2414
     27 N         141.6213  142.4125  166.7277 N.pl3   1  UNL1       -0.2979
     28 H         142.5975  142.3546  166.8416 H       1  UNL1        0.1536
     29 C         141.0443  143.2147  165.5991 C.ar    1  UNL1        0.0494
     30 C         139.7207  143.9004  165.7664 C.ar    1  UNL1        0.0146
     31 C         139.1437  144.7026  164.6379 C.ar    1  UNL1        0.0013
     32 C         139.8902  144.8189  163.3421 C.ar    1  UNL1        0.0001
     33 C         139.3131  145.6211  162.2135 C.ar    1  UNL1        0.0000
     34 C         140.0596  145.7375  160.9177 C.ar    1  UNL1        0.0000
     35 C         141.3832  145.0517  160.7504 C.ar    1  UNL1        0.0000
     36 C         141.9602  144.2496  161.8789 C.ar    1  UNL1        0.0000
     37 C         141.2137  144.1332  163.1748 C.ar    1  UNL1        0.0012
     38 C         141.7908  143.3311  164.3033 C.ar    1  UNL1        0.0146
@<TRIPOS>BOND
     1    21    22    2
     2    22    20    1
     3    20    19    1
     4    19    18    1
     5    18    17    1
     6    17    16    1
     7    16    15    1
     8    15    11    1
     9    11    12    2
    10    11    13   am
    11    13     1    1
    12     1     2   ar
    13     2     3   ar
    14     3     4   ar
    15     4     5   ar
    16     5     6   ar
    17     6     7   ar
    18     7     8   ar
    19     8    27    1
    20    27    29    1
    21    29    30   ar
    22    30    31   ar
    23    31    32   ar
    24    32    33   ar
    25    33    34   ar
    26    34    35   ar
    27    35    36   ar
    28    36    37   ar
    29    37    38   ar
    30     8     9   ar
    31     9    10   ar
    32    22    23   am
    33    23    24    1
    34    10     1   ar
    35     9     4   ar
    36    38    29   ar
    37    37    32   ar
    38    13    14    1
    39    27    28    1
    40    23    25    1
    41    24    26    1
@<TRIPOS>MOLECULE
*****
 38 41 0 0 0
SMALL
GASTEIGER

@<TRIPOS>ATOM
      1 C         143.9762  139.2814  162.7064 C.ar    1  UNL1        0.0504
      2 C         143.8479  138.0899  161.8042 C.ar    1  UNL1        0.0147
      3 C         143.5842  138.2826  160.3402 C.ar    1  UNL1        0.0014
      4 C         143.4488  139.6668  159.7784 C.ar    1  UNL1        0.0043
      5 C         143.1851  139.8595  158.3144 C.ar    1  UNL1        0.0208
      6 C         143.0497  141.2437  157.7525 C.ar    1  UNL1        0.1003
      7 N         143.1781  142.4352  158.6547 N.ar    1  UNL1       -0.2291
      8 C         143.4418  142.2425  160.1187 C.ar    1  UNL1        0.1321
      9 C         143.5772  140.8582  160.6805 C.ar    1  UNL1        0.0330
     10 C         143.8409  140.6655  162.1445 C.ar    1  UNL1        0.0174
     11 C         143.1742  138.5129  165.0550 C.2     1  UNL1        0.2261
     12 O         141.8447  138.1298  164.4757 O.2     1  UNL1       -0.2748
     13 N         144.2400  139.0887  164.1704 N.am    1  UNL1       -0.2839
     14 H         145.1126  139.3401  164.5506 H       1  UNL1        0.1549
     15 C         143.4380  138.3202  166.5190 C.3     1  UNL1        0.0854
     16 C         142.9236  139.3202  167.5118 C.3     1  UNL1        0.0096
     17 C         142.0027  140.4162  167.0638 C.3     1  UNL1        0.0005
     18 C         140.5557  140.3878  167.4577 C.3     1  UNL1        0.0005
     19 C         139.5049  140.8378  166.4864 C.3     1  UNL1        0.0096
     20 C         138.9202  139.8619  165.5086 C.3     1  UNL1        0.0871
     21 O         138.6692  137.2896  165.2437 O.2     1  UNL1       -0.2730
     22 C         138.3691  138.5538  165.9933 C.2     1  UNL1        0.2443
     23 N         137.5178  138.5097  167.2276 N.am    1  UNL1       -0.1970
     24 O         136.9667  137.2015  167.7122 O.3     1  UNL1       -0.2952
     25 H         137.3209  139.3394  167.7196 H       1  UNL1        0.1822
     26 H         137.2532  136.4901  167.1184 H       1  UNL1        0.2414
     27 N         143.5702  143.4339  161.0208 N.pl3   1  UNL1       -0.2979
     28 H         144.3800  143.9927  160.9861 H       1  UNL1        0.1536
     29 C         142.4647  143.7741  161.9760 C.ar    1  UNL1        0.0494
     30 C         142.6904  144.7949  163.0516 C.ar    1  UNL1        0.0146
     31 C         141.5850  145.1350  164.0067 C.ar    1  UNL1        0.0013
     32 C         140.2538  144.4544  163.8862 C.ar    1  UNL1        0.0001
     33 C         139.1483  144.7946  164.8413 C.ar    1  UNL1        0.0000
     34 C         137.8171  144.1140  164.7207 C.ar    1  UNL1        0.0000
     35 C         137.5913  143.0932  163.6451 C.ar    1  UNL1        0.0000
     36 C         138.6967  142.7530  162.6900 C.ar    1  UNL1        0.0000
     37 C         140.0280  143.4337  162.8105 C.ar    1  UNL1        0.0012
     38 C         141.1334  143.0935  161.8554 C.ar    1  UNL1        0.0146
@<TRIPOS>BOND
     1    21    22    2
     2    22    20    1
     3    20    19    1
     4    19    18    1
     5    18    17    1
     6    17    16    1
     7    16    15    1
     8    15    11    1
     9    11    12    2
    10    11    13   am
    11    13     1    1
    12     1     2   ar
    13     2     3   ar
    14     3     4   ar
    15     4     5   ar
    16     5     6   ar
    17     6     7   ar
    18     7     8   ar
    19     8    27    1
    20    27    29    1
    21    29    30   ar
    22    30    31   ar
    23    31    32   ar
    24    32    33   ar
    25    33    34   ar
    26    34    35   ar
    27    35    36   ar
    28    36    37   ar
    29    37    38   ar
    30     8     9   ar
    31     9    10   ar
    32    22    23   am
    33    23    24    1
    34    10     1   ar
    35     9     4   ar
    36    38    29   ar
    37    37    32   ar
    38    13    14    1
    39    27    28    1
    40    23    25    1
    41    24    26    1
@<TRIPOS>MOLECULE
*****
 38 41 0 0 0
SMALL
GASTEIGER

@<TRIPOS>ATOM
      1 C         144.2560  141.8004  161.0173 C.ar    1  UNL1        0.0504
      2 C         144.4483  142.4806  159.6943 C.ar    1  UNL1        0.0147
      3 C         144.1585  141.7412  158.4218 C.ar    1  UNL1        0.0014
      4 C         143.6763  140.3218  158.4722 C.ar    1  UNL1        0.0043
      5 C         143.3865  139.5824  157.1997 C.ar    1  UNL1        0.0208
      6 C         142.9044  138.1630  157.2501 C.ar    1  UNL1        0.1003
      7 N         142.7121  137.4827  158.5732 N.ar    1  UNL1       -0.2291
      8 C         143.0019  138.2221  159.8457 C.ar    1  UNL1        0.1321
      9 C         143.4841  139.6416  159.7952 C.ar    1  UNL1        0.0330
     10 C         143.7739  140.3809  161.0678 C.ar    1  UNL1        0.0174
     11 C         143.7393  143.7508  162.6540 C.2     1  UNL1        0.2261
     12 O         142.6427  144.2226  161.7456 O.2     1  UNL1       -0.2748
     13 N         144.5459  142.5397  162.2899 N.am    1  UNL1       -0.2839
     14 H         145.2655  142.2301  162.8861 H       1  UNL1        0.1549
     15 C         144.0291  144.4901  163.9266 C.3     1  UNL1        0.0854
     16 C         144.4032  143.7321  165.1658 C.3     1  UNL1        0.0096
     17 C         143.4345  142.7602  165.7716 C.3     1  UNL1        0.0005
     18 C         142.0662  142.5971  165.1790 C.3     1  UNL1        0.0005
     19 C         140.8523  142.9507  165.9860 C.3     1  UNL1        0.0096
     20 C         139.6687  143.5881  165.3204 C.3     1  UNL1        0.0871
     21 O         139.2259  143.6191  162.7605 O.2     1  UNL1       -0.2730
     22 C         139.8261  144.2484  163.9828 C.2     1  UNL1        0.2443
     23 N         140.5835  145.5379  163.8674 N.am    1  UNL1       -0.1970
     24 O         140.7409  146.1983  162.5298 O.3     1  UNL1       -0.2952
     25 H         140.9774  145.9509  164.6696 H       1  UNL1        0.1822
     26 H         140.2969  145.6652  161.8518 H       1  UNL1        0.2414
     27 N         142.8096  137.5419  161.1687 N.pl3   1  UNL1       -0.2979
     28 H         143.4022  136.8012  161.4322 H       1  UNL1        0.1536
     29 C         141.7143  137.9903  162.0904 C.ar    1  UNL1        0.0494
     30 C         140.3084  138.1110  161.5816 C.ar    1  UNL1        0.0146
     31 C         139.2132  138.5594  162.5032 C.ar    1  UNL1        0.0013
     32 C         139.5238  138.8869  163.9336 C.ar    1  UNL1        0.0001
     33 C         138.4286  139.3353  164.8553 C.ar    1  UNL1        0.0000
     34 C         138.7392  139.6629  166.2857 C.ar    1  UNL1        0.0000
     35 C         140.1451  139.5421  166.7945 C.ar    1  UNL1        0.0000
     36 C         141.2403  139.0938  165.8729 C.ar    1  UNL1        0.0000
     37 C         140.9297  138.7662  164.4424 C.ar    1  UNL1        0.0012
     38 C         142.0250  138.3178  163.5208 C.ar    1  UNL1        0.0146
@<TRIPOS>BOND
     1    21    22    2
     2    22    20    1
     3    20    19    1
     4    19    18    1
     5    18    17    1
     6    17    16    1
     7    16    15    1
     8    15    11    1
     9    11    12    2
    10    11    13   am
    11    13     1    1
    12     1     2   ar
    13     2     3   ar
    14     3     4   ar
    15     4     5   ar
    16     5     6   ar
    17     6     7   ar
    18     7     8   ar
    19     8    27    1
    20    27    29    1
    21    29    30   ar
    22    30    31   ar
    23    31    32   ar
    24    32    33   ar
    25    33    34   ar
    26    34    35   ar
    27    35    36   ar
    28    36    37   ar
    29    37    38   ar
    30     8     9   ar
    31     9    10   ar
    32    22    23   am
    33    23    24    1
    34    10     1   ar
    35     9     4   ar
    36    38    29   ar
    37    37    32   ar
    38    13    14    1
    39    27    28    1
    40    23    25    1
    41    24    26    1
@<TRIPOS>MOLECULE
*****
 38 41 0 0 0
SMALL
GASTEIGER

@<TRIPOS>ATOM
      1 C         143.9124  139.4195  162.4170 C.ar    1  UNL1        0.0504
      2 C         143.7984  138.2550  161.4784 C.ar    1  UNL1        0.0147
      3 C         143.5767  138.4912  160.0138 C.ar    1  UNL1        0.0014
      4 C         143.4691  139.8918  159.4878 C.ar    1  UNL1        0.0043
      5 C         143.2474  140.1279  158.0231 C.ar    1  UNL1        0.0208
      6 C         143.1398  141.5285  157.4971 C.ar    1  UNL1        0.1003
      7 N         143.2538  142.6930  158.4358 N.ar    1  UNL1       -0.2291
      8 C         143.4754  142.4569  159.9004 C.ar    1  UNL1        0.1321
      9 C         143.5831  141.0562  160.4264 C.ar    1  UNL1        0.0330
     10 C         143.8047  140.8200  161.8910 C.ar    1  UNL1        0.0174
     11 C         142.9879  138.7699  164.7565 C.2     1  UNL1        0.2261
     12 O         141.6201  138.5927  164.1668 O.2     1  UNL1       -0.2748
     13 N         144.1340  139.1833  163.8816 N.am    1  UNL1       -0.2839
     14 H         145.0318  139.2996  164.2686 H       1  UNL1        0.1549
     15 C         143.2096  138.5338  166.2211 C.3     1  UNL1        0.0854
     16 C         142.7707  139.5618  167.2215 C.3     1  UNL1        0.0096
     17 C         141.3138  139.8836  167.3762 C.3     1  UNL1        0.0005
     18 C         140.7245  141.0591  166.6545 C.3     1  UNL1        0.0005
     19 C         141.0277  142.4530  167.1186 C.3     1  UNL1        0.0096
     20 C         140.6528  142.8793  168.5071 C.3     1  UNL1        0.0871
     21 O         143.1161  142.8194  169.3310 O.2     1  UNL1       -0.2730
     22 C         141.6464  142.7544  169.6239 C.2     1  UNL1        0.2443
     23 N         141.1703  142.5644  171.0336 N.am    1  UNL1       -0.1970
     24 O         142.1639  142.4395  172.1504 O.3     1  UNL1       -0.2952
     25 H         140.2057  142.5217  171.2258 H       1  UNL1        0.1822
     26 H         143.0630  142.5023  171.7918 H       1  UNL1        0.2414
     27 N         143.5894  143.6213  160.8390 N.pl3   1  UNL1       -0.2979
     28 H         144.3771  144.2105  160.7990 H       1  UNL1        0.1536
     29 C         142.5033  143.8880  161.8386 C.ar    1  UNL1        0.0494
     30 C         142.7992  144.6891  163.0718 C.ar    1  UNL1        0.0146
     31 C         141.7131  144.9559  164.0714 C.ar    1  UNL1        0.0013
     32 C         140.3311  144.4215  163.8378 C.ar    1  UNL1        0.0001
     33 C         139.2449  144.6883  164.8374 C.ar    1  UNL1        0.0000
     34 C         137.8630  144.1540  164.6039 C.ar    1  UNL1        0.0000
     35 C         137.5671  143.3529  163.3707 C.ar    1  UNL1        0.0000
     36 C         138.6532  143.0861  162.3711 C.ar    1  UNL1        0.0000
     37 C         140.0352  143.6205  162.6046 C.ar    1  UNL1        0.0012
     38 C         141.1213  143.3537  161.6050 C.ar    1  UNL1        0.0146
@<TRIPOS>BOND
     1    21    22    2
     2    22    20    1
     3    20    19    1
     4    19    18    1
     5    18    17    1
     6    17    16    1
     7    16    15    1
     8    15    11    1
     9    11    12    2
    10    11    13   am
    11    13     1    1
    12     1     2   ar
    13     2     3   ar
    14     3     4   ar
    15     4     5   ar
    16     5     6   ar
    17     6     7   ar
    18     7     8   ar
    19     8    27    1
    20    27    29    1
    21    29    30   ar
    22    30    31   ar
    23    31    32   ar
    24    32    33   ar
    25    33    34   ar
    26    34    35   ar
    27    35    36   ar
    28    36    37   ar
    29    37    38   ar
    30     8     9   ar
    31     9    10   ar
    32    22    23   am
    33    23    24    1
    34    10     1   ar
    35     9     4   ar
    36    38    29   ar
    37    37    32   ar
    38    13    14    1
    39    27    28    1
    40    23    25    1
    41    24    26    1
@<TRIPOS>MOLECULE
*****
 38 41 0 0 0
SMALL
GASTEIGER

@<TRIPOS>ATOM
      1 C         140.3717  142.8277  160.9077 C.ar    1  UNL1        0.0504
      2 C         139.9843  142.5788  159.4801 C.ar    1  UNL1        0.0147
      3 C         141.0454  142.4115  158.4332 C.ar    1  UNL1        0.0014
      4 C         142.4940  142.4929  158.8139 C.ar    1  UNL1        0.0043
      5 C         143.5551  142.3255  157.7670 C.ar    1  UNL1        0.0208
      6 C         145.0037  142.4070  158.1477 C.ar    1  UNL1        0.1003
      7 N         145.3912  142.6558  159.5753 N.ar    1  UNL1       -0.2291
      8 C         144.3300  142.8232  160.6222 C.ar    1  UNL1        0.1321
      9 C         142.8814  142.7417  160.2415 C.ar    1  UNL1        0.0330
     10 C         141.8202  142.9091  161.2883 C.ar    1  UNL1        0.0174
     11 C         138.7918  144.3632  162.2846 C.2     1  UNL1        0.2261
     12 O         139.3342  145.5641  161.5678 O.2     1  UNL1       -0.2748
     13 N         139.3105  142.9950  161.9545 N.am    1  UNL1       -0.2839
     14 H         138.9545  142.2069  162.4250 H       1  UNL1        0.1549
     15 C         137.7307  144.5306  163.3315 C.3     1  UNL1        0.0854
     16 C         137.8788  143.8576  164.6639 C.3     1  UNL1        0.0096
     17 C         139.2205  143.8053  165.3326 C.3     1  UNL1        0.0005
     18 C         140.0214  142.5372  165.3089 C.3     1  UNL1        0.0005
     19 C         139.5603  141.3441  166.0924 C.3     1  UNL1        0.0096
     20 C         138.7656  140.2653  165.4179 C.3     1  UNL1        0.0871
     21 O         139.6667  139.9728  162.9987 O.2     1  UNL1       -0.2730
     22 C         138.5449  140.3122  163.9350 C.2     1  UNL1        0.2443
     23 N         137.2026  140.6986  163.3884 N.am    1  UNL1       -0.1970
     24 O         136.9819  140.7455  161.9054 O.3     1  UNL1       -0.2952
     25 H         136.4664  140.9214  164.0029 H       1  UNL1        0.1822
     26 H         137.8017  140.5001  161.4486 H       1  UNL1        0.2414
     27 N         144.7175  143.0720  162.0497 N.pl3   1  UNL1       -0.2979
     28 H         145.2402  143.8722  162.2856 H       1  UNL1        0.1536
     29 C         144.3085  142.1015  163.1180 C.ar    1  UNL1        0.0494
     30 C         144.2895  140.6301  162.8271 C.ar    1  UNL1        0.0146
     31 C         143.8806  139.6597  163.8952 C.ar    1  UNL1        0.0013
     32 C         143.4906  140.1607  165.2542 C.ar    1  UNL1        0.0001
     33 C         143.0816  139.1902  166.3225 C.ar    1  UNL1        0.0000
     34 C         142.6917  139.6912  167.6814 C.ar    1  UNL1        0.0000
     35 C         142.7106  141.1626  167.9723 C.ar    1  UNL1        0.0000
     36 C         143.1196  142.1330  166.9042 C.ar    1  UNL1        0.0000
     37 C         143.5096  141.6321  165.5451 C.ar    1  UNL1        0.0012
     38 C         143.9185  142.6025  164.4770 C.ar    1  UNL1        0.0146
@<TRIPOS>BOND
     1    21    22    2
     2    22    20    1
     3    20    19    1
     4    19    18    1
     5    18    17    1
     6    17    16    1
     7    16    15    1
     8    15    11    1
     9    11    12    2
    10    11    13   am
    11    13     1    1
    12     1     2   ar
    13     2     3   ar
    14     3     4   ar
    15     4     5   ar
    16     5     6   ar
    17     6     7   ar
    18     7     8   ar
    19     8    27    1
    20    27    29    1
    21    29    30   ar
    22    30    31   ar
    23    31    32   ar
    24    32    33   ar
    25    33    34   ar
    26    34    35   ar
    27    35    36   ar
    28    36    37   ar
    29    37    38   ar
    30     8     9   ar
    31     9    10   ar
    32    22    23   am
    33    23    24    1
    34    10     1   ar
    35     9     4   ar
    36    38    29   ar
    37    37    32   ar
    38    13    14    1
    39    27    28    1
    40    23    25    1
    41    24    26    1
@<TRIPOS>MOLECULE
*****
 38 41 0 0 0
SMALL
GASTEIGER

@<TRIPOS>ATOM
      1 C         139.0683  139.1749  165.4752 C.ar    1  UNL1        0.0504
      2 C         138.0065  138.7426  166.4424 C.ar    1  UNL1        0.0147
      3 C         138.1014  139.1376  167.8864 C.ar    1  UNL1        0.0014
      4 C         139.2582  139.9649  168.3631 C.ar    1  UNL1        0.0043
      5 C         139.3531  140.3600  169.8070 C.ar    1  UNL1        0.0208
      6 C         140.5099  141.1873  170.2838 C.ar    1  UNL1        0.1003
      7 N         141.5718  141.6196  169.3166 N.ar    1  UNL1       -0.2291
      8 C         141.4769  141.2246  167.8727 C.ar    1  UNL1        0.1321
      9 C         140.3200  140.3972  167.3959 C.ar    1  UNL1        0.0330
     10 C         140.2251  140.0022  165.9520 C.ar    1  UNL1        0.0174
     11 C         138.1714  139.6139  163.0767 C.2     1  UNL1        0.2261
     12 O         137.4643  140.8430  163.5661 O.2     1  UNL1       -0.2748
     13 N         138.9734  138.7799  164.0313 N.am    1  UNL1       -0.2839
     14 H         139.4375  137.9732  163.7101 H       1  UNL1        0.1549
     15 C         138.0765  139.2189  161.6328 C.3     1  UNL1        0.0854
     16 C         138.6193  140.1271  160.5695 C.3     1  UNL1        0.0096
     17 C         139.0931  141.5041  160.9295 C.3     1  UNL1        0.0005
     18 C         140.5621  141.7880  161.0355 C.3     1  UNL1        0.0005
     19 C         141.4015  141.0372  162.0264 C.3     1  UNL1        0.0096
     20 C         142.8011  140.6325  161.6695 C.3     1  UNL1        0.0871
     21 O         143.8139  140.2020  164.0230 O.2     1  UNL1       -0.2730
     22 C         143.9118  140.8205  162.6599 C.2     1  UNL1        0.2443
     23 N         145.1205  141.6269  162.2873 N.am    1  UNL1       -0.1970
     24 O         146.2312  141.8149  163.2778 O.3     1  UNL1       -0.2952
     25 H         145.1848  142.0328  161.3927 H       1  UNL1        0.1822
     26 H         146.0107  141.3539  164.1022 H       1  UNL1        0.2414
     27 N         142.5388  141.6569  166.9055 N.pl3   1  UNL1       -0.2979
     28 H         143.4537  141.3028  166.9882 H       1  UNL1        0.1536
     29 C         142.2068  142.6287  165.8121 C.ar    1  UNL1        0.0494
     30 C         143.3043  143.3749  165.1131 C.ar    1  UNL1        0.0146
     31 C         142.9723  144.3467  164.0198 C.ar    1  UNL1        0.0013
     32 C         141.5428  144.5723  163.6255 C.ar    1  UNL1        0.0001
     33 C         141.2108  145.5442  162.5321 C.ar    1  UNL1        0.0000
     34 C         139.7813  145.7698  162.1378 C.ar    1  UNL1        0.0000
     35 C         138.6837  145.0236  162.8368 C.ar    1  UNL1        0.0000
     36 C         139.0157  144.0518  163.9301 C.ar    1  UNL1        0.0000
     37 C         140.4453  143.8261  164.3245 C.ar    1  UNL1        0.0012
     38 C         140.7772  142.8544  165.4178 C.ar    1  UNL1        0.0146
@<TRIPOS>BOND
     1    21    22    2
     2    22    20    1
     3    20    19    1
     4    19    18    1
     5    18    17    1
     6    17    16    1
     7    16    15    1
     8    15    11    1
     9    11    12    2
    10    11    13   am
    11    13     1    1
    12     1     2   ar
    13     2     3   ar
    14     3     4   ar
    15     4     5   ar
    16     5     6   ar
    17     6     7   ar
    18     7     8   ar
    19     8    27    1
    20    27    29    1
    21    29    30   ar
    22    30    31   ar
    23    31    32   ar
    24    32    33   ar
    25    33    34   ar
    26    34    35   ar
    27    35    36   ar
    28    36    37   ar
    29    37    38   ar
    30     8     9   ar
    31     9    10   ar
    32    22    23   am
    33    23    24    1
    34    10     1   ar
    35     9     4   ar
    36    38    29   ar
    37    37    32   ar
    38    13    14    1
    39    27    28    1
    40    23    25    1
    41    24    26    1
