@<TRIPOS>MOLECULE
*****
 34 38 0 0 0
SMALL
GASTEIGER

@<TRIPOS>ATOM
      1 C         144.7167  138.2685  155.2078 C.3     1  UNL1        0.0719
      2 C         143.4592  138.2473  156.0253 C.ar    1  UNL1        0.1229
      3 N         143.4107  138.9582  157.3452 N.ar    1  UNL1       -0.2306
      4 C         142.1532  138.9370  158.1628 C.ar    1  UNL1        0.1065
      5 C         142.1047  139.6479  159.4827 C.ar    1  UNL1        0.1213
      6 N         140.8473  139.6267  160.3002 N.ar    1  UNL1       -0.2082
      7 C         139.6383  138.8946  159.7977 C.ar    1  UNL1        0.2300
      8 C         139.6868  138.1837  158.4778 C.ar    1  UNL1        0.0644
      9 C         140.9443  138.2049  157.6603 C.ar    1  UNL1        0.0800
     10 C         140.9928  137.4940  156.3403 C.ar    1  UNL1        0.2633
     11 O         139.7838  136.7620  155.8379 O.2     1  UNL1       -0.2669
     12 N         142.2502  137.5152  155.5229 N.ar    1  UNL1       -0.2840
     13 O         138.3808  138.8734  160.6153 O.3     1  UNL1       -0.4346
     14 C         138.4464  139.0909  162.0979 C.ar    1  UNL1        0.1648
     15 C         138.7064  137.9327  163.0151 C.ar    1  UNL1        0.0414
     16 C         138.7720  138.1502  164.4978 C.ar    1  UNL1        0.0329
     17 C         138.5777  139.5258  165.0634 C.ar    1  UNL1        0.1417
     18 F         138.6433  139.7433  166.5460 F       1  UNL1       -0.2041
     19 C         138.3177  140.6840  164.1463 C.ar    1  UNL1        0.0482
     20 C         138.1234  142.0596  164.7118 C.ar    1  UNL1        0.0054
     21 C         137.8635  143.2177  163.7947 C.ar    1  UNL1        0.0208
     22 C         137.7978  143.0003  162.3120 C.ar    1  UNL1        0.0989
     23 N         137.9922  141.6247  161.7465 N.ar    1  UNL1       -0.2407
     24 C         138.2521  140.4665  162.6636 C.ar    1  UNL1        0.1179
     25 C         142.2988  136.8043  154.2028 C.3     1  UNL1        0.1115
     26 C         142.4741  135.3152  154.1590 C.3     1  UNL1        0.0388
     27 C         141.8488  134.5187  153.0523 C.3     1  UNL1        0.0048
     28 C         142.0241  133.0297  153.0084 C.3     1  UNL1        0.0174
     29 C         142.8247  132.3371  154.0712 C.3     1  UNL1        0.0720
     30 N         143.4500  133.1336  155.1778 N.3     1  UNL1       -0.2739
     31 C         143.2746  134.6227  155.2217 C.3     1  UNL1        0.0739
     32 C         144.2505  132.4410  156.2406 C.3     1  UNL1        0.0576
     33 C         144.8542  131.0953  155.9674 C.3     1  UNL1        0.0173
     34 C         144.4474  133.0942  157.5765 C.3     1  UNL1        0.0173
@<TRIPOS>BOND
     1     1     2    1
     2     2     3   ar
     3     3     4   ar
     4     4     5   ar
     5     5     6   ar
     6     6     7   ar
     7     7    13    1
     8    13    14    1
     9    14    15   ar
    10    15    16   ar
    11    16    17   ar
    12    17    18    1
    13    17    19   ar
    14    19    20   ar
    15    20    21   ar
    16    21    22   ar
    17    22    23   ar
    18    23    24   ar
    19     7     8   ar
    20     8     9   ar
    21     9    10   ar
    22    10    11    2
    23    10    12   ar
    24    12    25    1
    25    26    25    1
    26    26    27    1
    27    27    28    1
    28    28    29    1
    29    29    30    1
    30    30    32    1
    31    32    33    1
    32    32    34    1
    33    30    31    1
    34    12     2   ar
    35    31    26    1
    36     9     4   ar
    37    24    14   ar
    38    24    19   ar
@<TRIPOS>MOLECULE
*****
 34 38 0 0 0
SMALL
GASTEIGER

@<TRIPOS>ATOM
      1 C         140.5702  145.4778  162.8821 C.3     1  UNL1        0.0719
      2 C         139.9131  144.4718  161.9842 C.ar    1  UNL1        0.1229
      3 N         140.3301  144.3635  160.5474 N.ar    1  UNL1       -0.2306
      4 C         139.6730  143.3575  159.6495 C.ar    1  UNL1        0.1065
      5 C         140.0900  143.2492  158.2127 C.ar    1  UNL1        0.1213
      6 N         139.4330  142.2432  157.3149 N.ar    1  UNL1       -0.2082
      7 C         138.3589  141.3455  157.8538 C.ar    1  UNL1        0.2300
      8 C         137.9419  141.4538  159.2906 C.ar    1  UNL1        0.0644
      9 C         138.5989  142.4598  160.1884 C.ar    1  UNL1        0.0800
     10 C         138.1819  142.5681  161.6253 C.ar    1  UNL1        0.2633
     11 O         137.1078  141.6703  162.1642 O.2     1  UNL1       -0.2669
     12 N         138.8390  143.5741  162.5231 N.ar    1  UNL1       -0.2840
     13 O         137.7018  140.3395  156.9559 O.3     1  UNL1       -0.4346
     14 C         136.7346  140.7928  155.9028 C.ar    1  UNL1        0.1648
     15 C         137.2400  141.4544  154.6551 C.ar    1  UNL1        0.0414
     16 C         136.2727  141.9077  153.6020 C.ar    1  UNL1        0.0329
     17 C         134.8001  141.6995  153.7967 C.ar    1  UNL1        0.1417
     18 F         133.8329  142.1528  152.7436 F       1  UNL1       -0.2041
     19 C         134.2947  141.0379  155.0444 C.ar    1  UNL1        0.0482
     20 C         132.8220  140.8297  155.2391 C.ar    1  UNL1        0.0054
     21 C         132.3166  140.1681  156.4869 C.ar    1  UNL1        0.0208
     22 C         133.2838  139.7148  157.5399 C.ar    1  UNL1        0.0989
     23 N         134.7564  139.9230  157.3452 N.ar    1  UNL1       -0.2407
     24 C         135.2619  140.5846  156.0975 C.ar    1  UNL1        0.1179
     25 C         138.4220  143.6824  163.9600 C.3     1  UNL1        0.1115
     26 C         138.9886  142.7382  164.9785 C.3     1  UNL1        0.0388
     27 C         140.0168  143.2207  165.9583 C.3     1  UNL1        0.0048
     28 C         140.5834  142.2765  166.9769 C.3     1  UNL1        0.0174
     29 C         140.1218  140.8498  167.0157 C.3     1  UNL1        0.0720
     30 N         139.0936  140.3674  166.0359 N.3     1  UNL1       -0.2739
     31 C         138.5270  141.3115  165.0174 C.3     1  UNL1        0.0739
     32 C         138.6319  138.9407  166.0747 C.3     1  UNL1        0.0576
     33 C         139.1746  137.9497  165.0881 C.3     1  UNL1        0.0173
     34 C         137.6276  138.5050  167.1002 C.3     1  UNL1        0.0173
@<TRIPOS>BOND
     1     1     2    1
     2     2     3   ar
     3     3     4   ar
     4     4     5   ar
     5     5     6   ar
     6     6     7   ar
     7     7    13    1
     8    13    14    1
     9    14    15   ar
    10    15    16   ar
    11    16    17   ar
    12    17    18    1
    13    17    19   ar
    14    19    20   ar
    15    20    21   ar
    16    21    22   ar
    17    22    23   ar
    18    23    24   ar
    19     7     8   ar
    20     8     9   ar
    21     9    10   ar
    22    10    11    2
    23    10    12   ar
    24    12    25    1
    25    26    25    1
    26    26    27    1
    27    27    28    1
    28    28    29    1
    29    29    30    1
    30    30    32    1
    31    32    33    1
    32    32    34    1
    33    30    31    1
    34    12     2   ar
    35    31    26    1
    36     9     4   ar
    37    24    14   ar
    38    24    19   ar
@<TRIPOS>MOLECULE
*****
 34 38 0 0 0
SMALL
GASTEIGER

@<TRIPOS>ATOM
      1 C         144.7620  138.0167  155.2219 C.3     1  UNL1        0.0719
      2 C         143.4955  138.0609  156.0246 C.ar    1  UNL1        0.1229
      3 N         143.4708  138.7659  157.3483 N.ar    1  UNL1       -0.2306
      4 C         142.2044  138.8102  158.1510 C.ar    1  UNL1        0.1065
      5 C         142.1797  139.5152  159.4747 C.ar    1  UNL1        0.1213
      6 N         140.9133  139.5594  160.2773 N.ar    1  UNL1       -0.2082
      7 C         139.6717  138.8985  159.7563 C.ar    1  UNL1        0.2300
      8 C         139.6964  138.1934  158.4326 C.ar    1  UNL1        0.0644
      9 C         140.9627  138.1493  157.6300 C.ar    1  UNL1        0.0800
     10 C         140.9875  137.4441  156.3062 C.ar    1  UNL1        0.2633
     11 O         139.7458  136.7832  155.7851 O.2     1  UNL1       -0.2669
     12 N         142.2539  137.4000  155.5035 N.ar    1  UNL1       -0.2840
     13 O         138.4052  138.9427  160.5590 O.3     1  UNL1       -0.4346
     14 C         138.2406  139.9647  161.6446 C.ar    1  UNL1        0.1648
     15 C         137.9351  141.3904  161.2924 C.ar    1  UNL1        0.0414
     16 C         137.7705  142.4124  162.3780 C.ar    1  UNL1        0.0329
     17 C         137.9114  142.0087  163.8157 C.ar    1  UNL1        0.1417
     18 F         137.7468  143.0306  164.9013 F       1  UNL1       -0.2041
     19 C         138.2170  140.5830  164.1679 C.ar    1  UNL1        0.0482
     20 C         138.3579  140.1792  165.6056 C.ar    1  UNL1        0.0054
     21 C         138.6634  138.7535  165.9578 C.ar    1  UNL1        0.0208
     22 C         138.8280  137.7316  164.8723 C.ar    1  UNL1        0.0989
     23 N         138.6871  138.1353  163.4346 N.ar    1  UNL1       -0.2407
     24 C         138.3816  139.5610  163.0824 C.ar    1  UNL1        0.1179
     25 C         142.2786  136.6949  154.1798 C.3     1  UNL1        0.1115
     26 C         142.4821  135.2097  154.1248 C.3     1  UNL1        0.0388
     27 C         141.8936  134.4133  152.9980 C.3     1  UNL1        0.0048
     28 C         142.0970  132.9282  152.9430 C.3     1  UNL1        0.0174
     29 C         142.8889  132.2395  154.0148 C.3     1  UNL1        0.0720
     30 N         143.4773  133.0359  155.1415 N.3     1  UNL1       -0.2739
     31 C         143.2739  134.5210  155.1965 C.3     1  UNL1        0.0739
     32 C         144.2692  132.3471  156.2132 C.3     1  UNL1        0.0576
     33 C         144.4053  132.9775  157.5675 C.3     1  UNL1        0.0173
     34 C         144.9250  131.0280  155.9306 C.3     1  UNL1        0.0173
@<TRIPOS>BOND
     1     1     2    1
     2     2     3   ar
     3     3     4   ar
     4     4     5   ar
     5     5     6   ar
     6     6     7   ar
     7     7    13    1
     8    13    14    1
     9    14    15   ar
    10    15    16   ar
    11    16    17   ar
    12    17    18    1
    13    17    19   ar
    14    19    20   ar
    15    20    21   ar
    16    21    22   ar
    17    22    23   ar
    18    23    24   ar
    19     7     8   ar
    20     8     9   ar
    21     9    10   ar
    22    10    11    2
    23    10    12   ar
    24    12    25    1
    25    26    25    1
    26    26    27    1
    27    27    28    1
    28    28    29    1
    29    29    30    1
    30    30    32    1
    31    32    33    1
    32    32    34    1
    33    30    31    1
    34    12     2   ar
    35    31    26    1
    36     9     4   ar
    37    24    14   ar
    38    24    19   ar
@<TRIPOS>MOLECULE
*****
 34 38 0 0 0
SMALL
GASTEIGER

@<TRIPOS>ATOM
      1 C         143.7143  145.1344  164.0044 C.3     1  UNL1        0.0719
      2 C         143.7395  143.8764  163.1878 C.ar    1  UNL1        0.1229
      3 N         143.6473  143.9509  161.6925 N.ar    1  UNL1       -0.2306
      4 C         143.6725  142.6929  160.8759 C.ar    1  UNL1        0.1065
      5 C         143.5803  142.7674  159.3806 C.ar    1  UNL1        0.1213
      6 N         143.6055  141.5094  158.5640 N.ar    1  UNL1       -0.2082
      7 C         143.7229  140.1769  159.2428 C.ar    1  UNL1        0.2300
      8 C         143.8150  140.1024  160.7380 C.ar    1  UNL1        0.0644
      9 C         143.7898  141.3604  161.5546 C.ar    1  UNL1        0.0800
     10 C         143.8820  141.2859  163.0500 C.ar    1  UNL1        0.2633
     11 O         143.9993  139.9534  163.7287 O.2     1  UNL1       -0.2669
     12 N         143.8568  142.5439  163.8665 N.ar    1  UNL1       -0.2840
     13 O         143.7480  138.9189  158.4261 O.3     1  UNL1       -0.4346
     14 C         142.4834  138.4004  157.8083 C.ar    1  UNL1        0.1648
     15 C         141.1585  138.9693  158.2218 C.ar    1  UNL1        0.0414
     16 C         139.8938  138.4507  157.6039 C.ar    1  UNL1        0.0329
     17 C         139.9541  137.3632  156.5726 C.ar    1  UNL1        0.1417
     18 F         138.6894  136.8447  155.9547 F       1  UNL1       -0.2041
     19 C         141.2790  136.7943  156.1590 C.ar    1  UNL1        0.0482
     20 C         141.3392  135.7069  155.1276 C.ar    1  UNL1        0.0054
     21 C         142.6641  135.1380  154.7141 C.ar    1  UNL1        0.0208
     22 C         143.9287  135.6565  155.3319 C.ar    1  UNL1        0.0989
     23 N         143.8685  136.7440  156.3633 N.ar    1  UNL1       -0.2407
     24 C         142.5436  137.3129  156.7768 C.ar    1  UNL1        0.1179
     25 C         143.9489  142.4694  165.3619 C.3     1  UNL1        0.1115
     26 C         142.7345  142.1244  166.1719 C.3     1  UNL1        0.0388
     27 C         142.7960  142.1644  167.6701 C.3     1  UNL1        0.0048
     28 C         141.5816  141.8194  168.4801 C.3     1  UNL1        0.0174
     29 C         140.3056  141.4344  167.7918 C.3     1  UNL1        0.0720
     30 N         140.2441  141.3943  166.2937 N.3     1  UNL1       -0.2739
     31 C         141.4585  141.7393  165.4837 C.3     1  UNL1        0.0739
     32 C         138.9681  141.0093  165.6055 C.3     1  UNL1        0.0576
     33 C         138.2817  141.9859  164.6972 C.3     1  UNL1        0.0173
     34 C         138.3786  139.6477  165.8256 C.3     1  UNL1        0.0173
@<TRIPOS>BOND
     1     1     2    1
     2     2     3   ar
     3     3     4   ar
     4     4     5   ar
     5     5     6   ar
     6     6     7   ar
     7     7    13    1
     8    13    14    1
     9    14    15   ar
    10    15    16   ar
    11    16    17   ar
    12    17    18    1
    13    17    19   ar
    14    19    20   ar
    15    20    21   ar
    16    21    22   ar
    17    22    23   ar
    18    23    24   ar
    19     7     8   ar
    20     8     9   ar
    21     9    10   ar
    22    10    11    2
    23    10    12   ar
    24    12    25    1
    25    26    25    1
    26    26    27    1
    27    27    28    1
    28    28    29    1
    29    29    30    1
    30    30    32    1
    31    32    33    1
    32    32    34    1
    33    30    31    1
    34    12     2   ar
    35    31    26    1
    36     9     4   ar
    37    24    14   ar
    38    24    19   ar
@<TRIPOS>MOLECULE
*****
 34 38 0 0 0
SMALL
GASTEIGER

@<TRIPOS>ATOM
      1 C         138.7879  138.5980  164.2789 C.3     1  UNL1        0.0719
      2 C         139.7788  138.4728  163.1597 C.ar    1  UNL1        0.1229
      3 N         139.3074  138.4849  161.7358 N.ar    1  UNL1       -0.2306
      4 C         140.2983  138.3597  160.6165 C.ar    1  UNL1        0.1065
      5 C         139.8269  138.3718  159.1926 C.ar    1  UNL1        0.1213
      6 N         140.8178  138.2466  158.0735 N.ar    1  UNL1       -0.2082
      7 C         142.2800  138.1093  158.3783 C.ar    1  UNL1        0.2300
      8 C         142.7514  138.0972  159.8022 C.ar    1  UNL1        0.0644
      9 C         141.7606  138.2224  160.9213 C.ar    1  UNL1        0.0800
     10 C         142.2320  138.2103  162.3454 C.ar    1  UNL1        0.2633
     11 O         143.6942  138.0730  162.6502 O.2     1  UNL1       -0.2669
     12 N         141.2411  138.3355  163.4645 N.ar    1  UNL1       -0.2840
     13 O         143.2709  137.9842  157.2591 O.3     1  UNL1       -0.4346
     14 C         142.9147  137.2092  156.0252 C.ar    1  UNL1        0.1648
     15 C         142.5341  137.9338  154.7682 C.ar    1  UNL1        0.0414
     16 C         142.1779  137.1587  153.5343 C.ar    1  UNL1        0.0329
     17 C         142.2023  135.6591  153.5575 C.ar    1  UNL1        0.1417
     18 F         141.8461  134.8841  152.3236 F       1  UNL1       -0.2041
     19 C         142.5829  134.9345  154.8145 C.ar    1  UNL1        0.0482
     20 C         142.6074  133.4349  154.8376 C.ar    1  UNL1        0.0054
     21 C         142.9880  132.7103  156.0946 C.ar    1  UNL1        0.0208
     22 C         143.3442  133.4853  157.3285 C.ar    1  UNL1        0.0989
     23 N         143.3198  134.9849  157.3053 N.ar    1  UNL1       -0.2407
     24 C         142.9391  135.7095  156.0483 C.ar    1  UNL1        0.1179
     25 C         141.7125  138.3234  164.8885 C.3     1  UNL1        0.1115
     26 C         141.9428  139.6163  165.6133 C.3     1  UNL1        0.0388
     27 C         143.0420  140.5373  165.1732 C.3     1  UNL1        0.0048
     28 C         143.2724  141.8302  165.8980 C.3     1  UNL1        0.0174
     29 C         142.4034  142.2022  167.0628 C.3     1  UNL1        0.0720
     30 N         141.3043  141.2812  167.5028 N.3     1  UNL1       -0.2739
     31 C         141.0739  139.9883  166.7780 C.3     1  UNL1        0.0739
     32 C         140.4354  141.6532  168.6675 C.3     1  UNL1        0.0576
     33 C         139.5392  140.6257  169.2930 C.3     1  UNL1        0.0173
     34 C         140.4627  143.0527  169.2068 C.3     1  UNL1        0.0173
@<TRIPOS>BOND
     1     1     2    1
     2     2     3   ar
     3     3     4   ar
     4     4     5   ar
     5     5     6   ar
     6     6     7   ar
     7     7    13    1
     8    13    14    1
     9    14    15   ar
    10    15    16   ar
    11    16    17   ar
    12    17    18    1
    13    17    19   ar
    14    19    20   ar
    15    20    21   ar
    16    21    22   ar
    17    22    23   ar
    18    23    24   ar
    19     7     8   ar
    20     8     9   ar
    21     9    10   ar
    22    10    11    2
    23    10    12   ar
    24    12    25    1
    25    26    25    1
    26    26    27    1
    27    27    28    1
    28    28    29    1
    29    29    30    1
    30    30    32    1
    31    32    33    1
    32    32    34    1
    33    30    31    1
    34    12     2   ar
    35    31    26    1
    36     9     4   ar
    37    24    14   ar
    38    24    19   ar
@<TRIPOS>MOLECULE
*****
 34 38 0 0 0
SMALL
GASTEIGER

@<TRIPOS>ATOM
      1 C         143.5894  145.1689  164.0342 C.3     1  UNL1        0.0719
      2 C         143.6325  143.9159  163.2106 C.ar    1  UNL1        0.1229
      3 N         143.5861  144.0003  161.7137 N.ar    1  UNL1       -0.2306
      4 C         143.6292  142.7473  160.8901 C.ar    1  UNL1        0.1065
      5 C         143.5828  142.8317  159.3933 C.ar    1  UNL1        0.1213
      6 N         143.6259  141.5788  158.5698 N.ar    1  UNL1       -0.2082
      7 C         143.7153  140.2414  159.2431 C.ar    1  UNL1        0.2300
      8 C         143.7616  140.1570  160.7400 C.ar    1  UNL1        0.0644
      9 C         143.7186  141.4099  161.5635 C.ar    1  UNL1        0.0800
     10 C         143.7649  141.3256  163.0605 C.ar    1  UNL1        0.2633
     11 O         143.8544  139.9882  163.7338 O.2     1  UNL1       -0.2669
     12 N         143.7219  142.5785  163.8840 N.ar    1  UNL1       -0.2840
     13 O         143.7584  138.9884  158.4195 O.3     1  UNL1       -0.4346
     14 C         142.4977  138.4439  157.8161 C.ar    1  UNL1        0.1648
     15 C         141.1664  138.9882  158.2418 C.ar    1  UNL1        0.0414
     16 C         139.9057  138.4436  157.6383 C.ar    1  UNL1        0.0329
     17 C         139.9764  137.3547  156.6091 C.ar    1  UNL1        0.1417
     18 F         138.7158  136.8102  156.0056 F       1  UNL1       -0.2041
     19 C         141.3077  136.8104  156.1834 C.ar    1  UNL1        0.0482
     20 C         141.3784  135.7215  155.1541 C.ar    1  UNL1        0.0054
     21 C         142.7098  135.1772  154.7284 C.ar    1  UNL1        0.0208
     22 C         143.9704  135.7218  155.3318 C.ar    1  UNL1        0.0989
     23 N         143.8997  136.8106  156.3611 N.ar    1  UNL1       -0.2407
     24 C         142.5684  137.3549  156.7868 C.ar    1  UNL1        0.1179
     25 C         143.7682  142.4941  165.3809 C.3     1  UNL1        0.1115
     26 C         142.5454  142.0850  166.1473 C.3     1  UNL1        0.0388
     27 C         141.1852  142.2642  165.5405 C.3     1  UNL1        0.0048
     28 C         139.9624  141.8552  166.3069 C.3     1  UNL1        0.0174
     29 C         140.0996  141.2669  167.6799 C.3     1  UNL1        0.0720
     30 N         141.4597  141.0877  168.2866 N.3     1  UNL1       -0.2739
     31 C         142.6826  141.4968  167.5202 C.3     1  UNL1        0.0739
     32 C         141.5969  140.4995  169.6595 C.3     1  UNL1        0.0576
     33 C         140.3758  140.0658  170.4151 C.3     1  UNL1        0.0173
     34 C         142.9552  140.3449  170.2770 C.3     1  UNL1        0.0173
@<TRIPOS>BOND
     1     1     2    1
     2     2     3   ar
     3     3     4   ar
     4     4     5   ar
     5     5     6   ar
     6     6     7   ar
     7     7    13    1
     8    13    14    1
     9    14    15   ar
    10    15    16   ar
    11    16    17   ar
    12    17    18    1
    13    17    19   ar
    14    19    20   ar
    15    20    21   ar
    16    21    22   ar
    17    22    23   ar
    18    23    24   ar
    19     7     8   ar
    20     8     9   ar
    21     9    10   ar
    22    10    11    2
    23    10    12   ar
    24    12    25    1
    25    26    25    1
    26    26    27    1
    27    27    28    1
    28    28    29    1
    29    29    30    1
    30    30    32    1
    31    32    33    1
    32    32    34    1
    33    30    31    1
    34    12     2   ar
    35    31    26    1
    36     9     4   ar
    37    24    14   ar
    38    24    19   ar
@<TRIPOS>MOLECULE
*****
 34 38 0 0 0
SMALL
GASTEIGER

@<TRIPOS>ATOM
      1 C         138.8976  138.5589  164.1538 C.3     1  UNL1        0.0719
      2 C         139.8641  138.4277  163.0142 C.ar    1  UNL1        0.1229
      3 N         139.3672  138.4772  161.5998 N.ar    1  UNL1       -0.2306
      4 C         140.3337  138.3460  160.4602 C.ar    1  UNL1        0.1065
      5 C         139.8368  138.3956  159.0458 C.ar    1  UNL1        0.1213
      6 N         140.8033  138.2644  157.9063 N.ar    1  UNL1       -0.2082
      7 C         142.2668  138.0836  158.1812 C.ar    1  UNL1        0.2300
      8 C         142.7638  138.0341  159.5956 C.ar    1  UNL1        0.0644
      9 C         141.7972  138.1653  160.7351 C.ar    1  UNL1        0.0800
     10 C         142.2942  138.1157  162.1496 C.ar    1  UNL1        0.2633
     11 O         143.7576  137.9349  162.4244 O.2     1  UNL1       -0.2669
     12 N         141.3276  138.2469  163.2891 N.ar    1  UNL1       -0.2840
     13 O         143.2333  137.9524  157.0416 O.3     1  UNL1       -0.4346
     14 C         142.8727  137.1248  155.8437 C.ar    1  UNL1        0.1648
     15 C         142.4167  137.7926  154.5804 C.ar    1  UNL1        0.0414
     16 C         142.0560  136.9649  153.3825 C.ar    1  UNL1        0.0329
     17 C         142.1513  135.4694  153.4480 C.ar    1  UNL1        0.1417
     18 F         141.7906  134.6417  152.2502 F       1  UNL1       -0.2041
     19 C         142.6072  134.8015  154.7114 C.ar    1  UNL1        0.0482
     20 C         142.7025  133.3060  154.7769 C.ar    1  UNL1        0.0054
     21 C         143.1585  132.6382  156.0402 C.ar    1  UNL1        0.0208
     22 C         143.5192  133.4658  157.2381 C.ar    1  UNL1        0.0989
     23 N         143.4239  134.9613  157.1726 N.ar    1  UNL1       -0.2407
     24 C         142.9679  135.6292  155.9092 C.ar    1  UNL1        0.1179
     25 C         141.8246  138.1973  164.7036 C.3     1  UNL1        0.1115
     26 C         142.1751  139.4676  165.4203 C.3     1  UNL1        0.0388
     27 C         141.5868  139.7540  166.7701 C.3     1  UNL1        0.0048
     28 C         141.9374  141.0242  167.4868 C.3     1  UNL1        0.0174
     29 C         142.8762  142.0080  166.8536 C.3     1  UNL1        0.0720
     30 N         143.4645  141.7216  165.5039 N.3     1  UNL1       -0.2739
     31 C         143.1139  140.4513  164.7872 C.3     1  UNL1        0.0739
     32 C         144.4033  142.7053  164.8708 C.3     1  UNL1        0.0576
     33 C         144.8970  142.4781  163.4728 C.3     1  UNL1        0.0173
     34 C         144.8485  143.9164  165.6359 C.3     1  UNL1        0.0173
@<TRIPOS>BOND
     1     1     2    1
     2     2     3   ar
     3     3     4   ar
     4     4     5   ar
     5     5     6   ar
     6     6     7   ar
     7     7    13    1
     8    13    14    1
     9    14    15   ar
    10    15    16   ar
    11    16    17   ar
    12    17    18    1
    13    17    19   ar
    14    19    20   ar
    15    20    21   ar
    16    21    22   ar
    17    22    23   ar
    18    23    24   ar
    19     7     8   ar
    20     8     9   ar
    21     9    10   ar
    22    10    11    2
    23    10    12   ar
    24    12    25    1
    25    26    25    1
    26    26    27    1
    27    27    28    1
    28    28    29    1
    29    29    30    1
    30    30    32    1
    31    32    33    1
    32    32    34    1
    33    30    31    1
    34    12     2   ar
    35    31    26    1
    36     9     4   ar
    37    24    14   ar
    38    24    19   ar
@<TRIPOS>MOLECULE
*****
 34 38 0 0 0
SMALL
GASTEIGER

@<TRIPOS>ATOM
      1 C         139.8856  137.7253  154.8351 C.3     1  UNL1        0.0719
      2 C         140.1985  138.0356  156.2690 C.ar    1  UNL1        0.1229
      3 N         139.2252  138.8223  157.0958 N.ar    1  UNL1       -0.2306
      4 C         139.5382  139.1326  158.5297 C.ar    1  UNL1        0.1065
      5 C         138.5648  139.9193  159.3565 C.ar    1  UNL1        0.1213
      6 N         138.8778  140.2295  160.7903 N.ar    1  UNL1       -0.2082
      7 C         140.1642  139.7531  161.3972 C.ar    1  UNL1        0.2300
      8 C         141.1375  138.9664  160.5704 C.ar    1  UNL1        0.0644
      9 C         140.8245  138.6562  159.1366 C.ar    1  UNL1        0.0800
     10 C         141.7979  137.8695  158.3097 C.ar    1  UNL1        0.2633
     11 O         143.0842  137.3930  158.9166 O.2     1  UNL1       -0.2669
     12 N         141.4849  137.5592  156.8759 N.ar    1  UNL1       -0.2840
     13 O         140.4771  140.0634  162.8311 O.3     1  UNL1       -0.4346
     14 C         140.0688  141.3813  163.4196 C.ar    1  UNL1        0.1648
     15 C         138.7143  141.5358  164.0453 C.ar    1  UNL1        0.0414
     16 C         138.3060  142.8538  164.6339 C.ar    1  UNL1        0.0329
     17 C         139.2521  144.0171  164.5967 C.ar    1  UNL1        0.1417
     18 F         138.8438  145.3350  165.1853 F       1  UNL1       -0.2041
     19 C         140.6066  143.8626  163.9710 C.ar    1  UNL1        0.0482
     20 C         141.5527  145.0259  163.9339 C.ar    1  UNL1        0.0054
     21 C         142.9072  144.8714  163.3081 C.ar    1  UNL1        0.0208
     22 C         143.3155  143.5535  162.7196 C.ar    1  UNL1        0.0989
     23 N         142.3694  142.3902  162.7568 N.ar    1  UNL1       -0.2407
     24 C         141.0149  142.5447  163.3825 C.ar    1  UNL1        0.1179
     25 C         142.4582  136.7725  156.0490 C.3     1  UNL1        0.1115
     26 C         142.3581  135.2769  155.9936 C.3     1  UNL1        0.0388
     27 C         141.2865  134.6269  155.1694 C.3     1  UNL1        0.0048
     28 C         141.1864  133.1313  155.1140 C.3     1  UNL1        0.0174
     29 C         142.1579  132.2856  155.8828 C.3     1  UNL1        0.0720
     30 N         143.2295  132.9355  156.7070 N.3     1  UNL1       -0.2739
     31 C         143.3296  134.4312  156.7624 C.3     1  UNL1        0.0739
     32 C         144.2009  132.0898  157.4757 C.3     1  UNL1        0.0576
     33 C         144.0336  130.5996  157.5112 C.3     1  UNL1        0.0173
     34 C         145.3398  132.7343  158.2091 C.3     1  UNL1        0.0173
@<TRIPOS>BOND
     1     1     2    1
     2     2     3   ar
     3     3     4   ar
     4     4     5   ar
     5     5     6   ar
     6     6     7   ar
     7     7    13    1
     8    13    14    1
     9    14    15   ar
    10    15    16   ar
    11    16    17   ar
    12    17    18    1
    13    17    19   ar
    14    19    20   ar
    15    20    21   ar
    16    21    22   ar
    17    22    23   ar
    18    23    24   ar
    19     7     8   ar
    20     8     9   ar
    21     9    10   ar
    22    10    11    2
    23    10    12   ar
    24    12    25    1
    25    26    25    1
    26    26    27    1
    27    27    28    1
    28    28    29    1
    29    29    30    1
    30    30    32    1
    31    32    33    1
    32    32    34    1
    33    30    31    1
    34    12     2   ar
    35    31    26    1
    36     9     4   ar
    37    24    14   ar
    38    24    19   ar
@<TRIPOS>MOLECULE
*****
 34 38 0 0 0
SMALL
GASTEIGER

@<TRIPOS>ATOM
      1 C         139.5562  137.6381  154.7280 C.3     1  UNL1        0.0719
      2 C         139.9995  137.9747  156.1209 C.ar    1  UNL1        0.1229
      3 N         139.0798  138.7214  157.0409 N.ar    1  UNL1       -0.2306
      4 C         139.5232  139.0580  158.4338 C.ar    1  UNL1        0.1065
      5 C         138.6035  139.8048  159.3538 C.ar    1  UNL1        0.1213
      6 N         139.0469  140.1414  160.7466 N.ar    1  UNL1       -0.2082
      7 C         140.4100  139.7311  161.2195 C.ar    1  UNL1        0.2300
      8 C         141.3297  138.9843  160.2996 C.ar    1  UNL1        0.0644
      9 C         140.8863  138.6478  158.9067 C.ar    1  UNL1        0.0800
     10 C         141.8060  137.9010  157.9867 C.ar    1  UNL1        0.2633
     11 O         143.1692  137.4907  158.4596 O.2     1  UNL1       -0.2669
     12 N         141.3627  137.5644  156.5938 N.ar    1  UNL1       -0.2840
     13 O         140.8533  140.0677  162.6125 O.3     1  UNL1       -0.4346
     14 C         141.1944  141.4841  162.9693 C.ar    1  UNL1        0.1648
     15 C         142.5809  142.0046  162.7311 C.ar    1  UNL1        0.0414
     16 C         142.9218  143.4211  163.0880 C.ar    1  UNL1        0.0329
     17 C         141.8763  144.3171  163.6831 C.ar    1  UNL1        0.1417
     18 F         142.2174  145.7335  164.0399 F       1  UNL1       -0.2041
     19 C         140.4898  143.7966  163.9213 C.ar    1  UNL1        0.0482
     20 C         139.4444  144.6926  164.5164 C.ar    1  UNL1        0.0054
     21 C         138.0579  144.1721  164.7546 C.ar    1  UNL1        0.0208
     22 C         137.7168  142.7557  164.3977 C.ar    1  UNL1        0.0989
     23 N         138.7623  141.8597  163.8026 N.ar    1  UNL1       -0.2407
     24 C         140.1488  142.3802  163.5644 C.ar    1  UNL1        0.1179
     25 C         142.2824  136.8176  155.6738 C.3     1  UNL1        0.1115
     26 C         142.2708  135.3177  155.6569 C.3     1  UNL1        0.0388
     27 C         141.1208  134.5836  155.0334 C.3     1  UNL1        0.0048
     28 C         141.1092  133.0837  155.0166 C.3     1  UNL1        0.0174
     29 C         142.2476  132.3180  155.6231 C.3     1  UNL1        0.0720
     30 N         143.3975  133.0522  156.2465 N.3     1  UNL1       -0.2739
     31 C         143.4091  134.5520  156.2634 C.3     1  UNL1        0.0739
     32 C         144.5358  132.2865  156.8530 C.3     1  UNL1        0.0576
     33 C         145.1468  132.7474  158.1431 C.3     1  UNL1        0.0173
     34 C         145.0632  131.0598  156.1695 C.3     1  UNL1        0.0173
@<TRIPOS>BOND
     1     1     2    1
     2     2     3   ar
     3     3     4   ar
     4     4     5   ar
     5     5     6   ar
     6     6     7   ar
     7     7    13    1
     8    13    14    1
     9    14    15   ar
    10    15    16   ar
    11    16    17   ar
    12    17    18    1
    13    17    19   ar
    14    19    20   ar
    15    20    21   ar
    16    21    22   ar
    17    22    23   ar
    18    23    24   ar
    19     7     8   ar
    20     8     9   ar
    21     9    10   ar
    22    10    11    2
    23    10    12   ar
    24    12    25    1
    25    26    25    1
    26    26    27    1
    27    27    28    1
    28    28    29    1
    29    29    30    1
    30    30    32    1
    31    32    33    1
    32    32    34    1
    33    30    31    1
    34    12     2   ar
    35    31    26    1
    36     9     4   ar
    37    24    14   ar
    38    24    19   ar
