@<TRIPOS>MOLECULE
*****
 34 39 0 0 0
SMALL
GASTEIGER

@<TRIPOS>ATOM
      1 N         141.4399  138.3715  158.7491 N.ar    1  UNL1       -0.2340
      2 N         141.5218  138.1790  160.2344 N.ar    1  UNL1       -0.1679
      3 C         140.2742  138.7457  160.8448 C.ar    1  UNL1        0.1065
      4 C         139.4213  139.2884  159.7366 C.ar    1  UNL1        0.0860
      5 C         138.0817  139.9633  159.7396 C.ar    1  UNL1        0.1316
      6 N         137.3613  140.1945  161.0348 N.pl3   1  UNL1       -0.3425
      7 N         137.4626  140.4070  158.4474 N.ar    1  UNL1       -0.2093
      8 C         138.1830  140.1758  157.1522 C.ar    1  UNL1        0.2014
      9 N         139.5226  139.5009  157.1493 N.ar    1  UNL1       -0.2050
     10 C         140.1417  139.0572  158.4414 C.ar    1  UNL1        0.1653
     11 H         137.7677  139.9033  161.8829 H       1  UNL1        0.1437
     12 H         136.4821  140.6375  161.0368 H       1  UNL1        0.1437
     13 C         139.9385  138.7660  162.3066 C.ar    1  UNL1        0.0195
     14 C         139.1972  137.6163  162.9219 C.ar    1  UNL1        0.0016
     15 C         138.8615  137.6367  164.3837 C.ar    1  UNL1        0.0001
     16 C         139.2671  138.8068  165.2302 C.ar    1  UNL1        0.0030
     17 C         138.9313  138.8271  166.6920 C.ar    1  UNL1        0.0369
     18 C         139.3370  139.9972  167.5385 C.ar    1  UNL1        0.1384
     19 C         140.0783  141.1469  166.9231 C.ar    1  UNL1        0.0369
     20 C         140.4140  141.1265  165.4613 C.ar    1  UNL1        0.0031
     21 C         140.0084  139.9564  164.6148 C.ar    1  UNL1        0.0002
     22 C         140.3441  139.9360  163.1531 C.ar    1  UNL1        0.0016
     23 O         139.0012  140.0175  169.0002 O.3     1  UNL1       -0.4792
     24 C         139.6593  141.0149  169.9071 C.3     1  UNL1        0.1661
     25 C         140.6852  141.3424  170.9512 C.3     1  UNL1        0.0472
     26 C         139.7731  142.4148  170.4336 C.3     1  UNL1        0.0472
     27 C         142.4746  137.9521  157.7473 C.3     1  UNL1        0.1291
     28 C         141.7540  132.8710  154.6387 C.3     1  UNL1        0.0896
     29 N         141.9342  134.1413  155.4159 N.3     1  UNL1       -0.2715
     30 C         142.9966  134.2308  156.4710 C.3     1  UNL1        0.0722
     31 C         143.1767  135.5010  157.2481 C.3     1  UNL1        0.0194
     32 C         142.2944  136.6818  156.9702 C.3     1  UNL1        0.0272
     33 C         141.2320  136.5923  155.9151 C.3     1  UNL1        0.0194
     34 C         141.0519  135.3221  155.1379 C.3     1  UNL1        0.0722
@<TRIPOS>BOND
     1    28    29    1
     2    29    30    1
     3    30    31    1
     4    31    32    1
     5    32    27    1
     6    27     1    1
     7     1     2   ar
     8     2     3   ar
     9     3    13    1
    10    13    14   ar
    11    14    15   ar
    12    15    16   ar
    13    16    17   ar
    14    17    18   ar
    15    18    23    1
    16    23    24    1
    17    24    25    1
    18    25    26    1
    19    18    19   ar
    20    19    20   ar
    21    20    21   ar
    22    21    22   ar
    23     3     4   ar
    24     4     5   ar
    25     5     6    1
    26     5     7   ar
    27     7     8   ar
    28     8     9   ar
    29     9    10   ar
    30    32    33    1
    31    33    34    1
    32    34    29    1
    33    10     1   ar
    34    22    13   ar
    35    10     4   ar
    36    21    16   ar
    37    26    24    1
    38     6    11    1
    39     6    12    1
@<TRIPOS>MOLECULE
*****
 34 39 0 0 0
SMALL
GASTEIGER

@<TRIPOS>ATOM
      1 N         141.9129  137.8685  158.1295 N.ar    1  UNL1       -0.2340
      2 N         142.0069  137.9571  159.6239 N.ar    1  UNL1       -0.1679
      3 C         140.8222  138.7333  160.1177 C.ar    1  UNL1        0.1065
      4 C         139.9959  139.1244  158.9284 C.ar    1  UNL1        0.0860
      5 C         138.7167  139.8981  158.8057 C.ar    1  UNL1        0.1316
      6 N         138.0427  140.4326  160.0345 N.pl3   1  UNL1       -0.3425
      7 N         138.1116  140.1374  157.4542 N.ar    1  UNL1       -0.2093
      8 C         138.7857  139.6029  156.2254 C.ar    1  UNL1        0.2014
      9 N         140.0649  138.8291  156.3482 N.ar    1  UNL1       -0.2050
     10 C         140.6699  138.5899  157.6996 C.ar    1  UNL1        0.1653
     11 H         138.4398  140.2756  160.9215 H       1  UNL1        0.1437
     12 H         137.2031  140.9404  159.9539 H       1  UNL1        0.1437
     13 C         140.5172  139.0610  161.5494 C.ar    1  UNL1        0.0195
     14 C         140.9957  140.3535  162.1413 C.ar    1  UNL1        0.0016
     15 C         140.6907  140.6810  163.5730 C.ar    1  UNL1        0.0001
     16 C         139.9073  139.7161  164.4127 C.ar    1  UNL1        0.0030
     17 C         139.6023  140.0438  165.8444 C.ar    1  UNL1        0.0369
     18 C         138.8188  139.0788  166.6841 C.ar    1  UNL1        0.1384
     19 C         138.3403  137.7863  166.0921 C.ar    1  UNL1        0.0369
     20 C         138.6453  137.4587  164.6604 C.ar    1  UNL1        0.0031
     21 C         139.4288  138.4236  163.8207 C.ar    1  UNL1        0.0002
     22 C         139.7338  138.0960  162.3891 C.ar    1  UNL1        0.0016
     23 O         138.5139  139.4064  168.1157 O.3     1  UNL1       -0.4792
     24 C         139.5008  140.1858  168.9335 C.3     1  UNL1        0.1661
     25 C         140.8726  140.3307  169.5227 C.3     1  UNL1        0.0472
     26 C         139.8384  141.3907  169.7605 C.3     1  UNL1        0.0472
     27 C         142.8902  137.1794  157.2239 C.3     1  UNL1        0.1291
     28 C         141.8421  131.5605  155.3991 C.3     1  UNL1        0.0896
     29 N         142.1041  132.9653  155.8553 N.3     1  UNL1       -0.2715
     30 C         141.3677  134.1089  155.2230 C.3     1  UNL1        0.0722
     31 C         141.6297  135.5136  155.6792 C.3     1  UNL1        0.0194
     32 C         142.6281  135.7747  156.7677 C.3     1  UNL1        0.0272
     33 C         143.3646  134.6311  157.4000 C.3     1  UNL1        0.0194
     34 C         143.1026  133.2264  156.9438 C.3     1  UNL1        0.0722
@<TRIPOS>BOND
     1    28    29    1
     2    29    30    1
     3    30    31    1
     4    31    32    1
     5    32    27    1
     6    27     1    1
     7     1     2   ar
     8     2     3   ar
     9     3    13    1
    10    13    14   ar
    11    14    15   ar
    12    15    16   ar
    13    16    17   ar
    14    17    18   ar
    15    18    23    1
    16    23    24    1
    17    24    25    1
    18    25    26    1
    19    18    19   ar
    20    19    20   ar
    21    20    21   ar
    22    21    22   ar
    23     3     4   ar
    24     4     5   ar
    25     5     6    1
    26     5     7   ar
    27     7     8   ar
    28     8     9   ar
    29     9    10   ar
    30    32    33    1
    31    33    34    1
    32    34    29    1
    33    10     1   ar
    34    22    13   ar
    35    10     4   ar
    36    21    16   ar
    37    26    24    1
    38     6    11    1
    39     6    12    1
@<TRIPOS>MOLECULE
*****
 34 39 0 0 0
SMALL
GASTEIGER

@<TRIPOS>ATOM
      1 N         138.4910  142.8210  158.4591 N.ar    1  UNL1       -0.2340
      2 N         138.2492  142.5776  159.9194 N.ar    1  UNL1       -0.1679
      3 C         139.2699  143.3571  160.6944 C.ar    1  UNL1        0.1065
      4 C         140.1424  144.0822  159.7132 C.ar    1  UNL1        0.0860
      5 C         141.3131  145.0014  159.8991 C.ar    1  UNL1        0.1316
      6 N         141.7945  145.3327  161.2806 N.pl3   1  UNL1       -0.3425
      7 N         142.0024  145.5893  158.7036 N.ar    1  UNL1       -0.2093
      8 C         141.5211  145.2580  157.3221 C.ar    1  UNL1        0.2014
      9 N         140.3503  144.3387  157.1362 N.ar    1  UNL1       -0.2050
     10 C         139.6611  143.7509  158.3317 C.ar    1  UNL1        0.1653
     11 H         141.3420  144.9468  162.0653 H       1  UNL1        0.1437
     12 H         142.5628  145.9360  161.4027 H       1  UNL1        0.1437
     13 C         139.3959  143.4033  162.1884 C.ar    1  UNL1        0.0195
     14 C         138.6429  144.4365  162.9730 C.ar    1  UNL1        0.0016
     15 C         138.7689  144.4827  164.4669 C.ar    1  UNL1        0.0001
     16 C         139.6479  143.4957  165.1763 C.ar    1  UNL1        0.0030
     17 C         139.7739  143.5420  166.6704 C.ar    1  UNL1        0.0369
     18 C         140.6530  142.5550  167.3798 C.ar    1  UNL1        0.1384
     19 C         141.4060  141.5218  166.5952 C.ar    1  UNL1        0.0369
     20 C         141.2799  141.4756  165.1012 C.ar    1  UNL1        0.0031
     21 C         140.4009  142.4626  164.3918 C.ar    1  UNL1        0.0002
     22 C         140.2749  142.4164  162.8979 C.ar    1  UNL1        0.0016
     23 O         140.7790  142.6012  168.8737 O.3     1  UNL1       -0.4792
     24 C         142.1357  142.6656  169.5104 C.3     1  UNL1        0.1661
     25 C         143.5787  142.2570  169.5373 C.3     1  UNL1        0.0472
     26 C         143.0425  143.1857  170.5861 C.3     1  UNL1        0.0472
     27 C         137.7013  142.2370  157.3254 C.3     1  UNL1        0.1291
     28 C         139.2022  136.8842  155.0680 C.3     1  UNL1        0.0896
     29 N         138.8269  138.2225  155.6323 N.3     1  UNL1       -0.2715
     30 C         139.4678  138.7090  156.8983 C.3     1  UNL1        0.0722
     31 C         139.0926  140.0472  157.4626 C.3     1  UNL1        0.0194
     32 C         138.0765  140.8988  156.7610 C.3     1  UNL1        0.0272
     33 C         137.4356  140.4123  155.4951 C.3     1  UNL1        0.0194
     34 C         137.8109  139.0741  154.9307 C.3     1  UNL1        0.0722
@<TRIPOS>BOND
     1    28    29    1
     2    29    30    1
     3    30    31    1
     4    31    32    1
     5    32    27    1
     6    27     1    1
     7     1     2   ar
     8     2     3   ar
     9     3    13    1
    10    13    14   ar
    11    14    15   ar
    12    15    16   ar
    13    16    17   ar
    14    17    18   ar
    15    18    23    1
    16    23    24    1
    17    24    25    1
    18    25    26    1
    19    18    19   ar
    20    19    20   ar
    21    20    21   ar
    22    21    22   ar
    23     3     4   ar
    24     4     5   ar
    25     5     6    1
    26     5     7   ar
    27     7     8   ar
    28     8     9   ar
    29     9    10   ar
    30    32    33    1
    31    33    34    1
    32    34    29    1
    33    10     1   ar
    34    22    13   ar
    35    10     4   ar
    36    21    16   ar
    37    26    24    1
    38     6    11    1
    39     6    12    1
@<TRIPOS>MOLECULE
*****
 34 39 0 0 0
SMALL
GASTEIGER

@<TRIPOS>ATOM
      1 N         142.3606  137.5159  158.2318 N.ar    1  UNL1       -0.2340
      2 N         142.7751  137.4078  159.6694 N.ar    1  UNL1       -0.1679
      3 C         141.7932  138.1855  160.4946 C.ar    1  UNL1        0.1065
      4 C         140.7719  138.7742  159.5671 C.ar    1  UNL1        0.0860
      5 C         139.5679  139.6337  159.8153 C.ar    1  UNL1        0.1316
      6 N         139.2172  140.0475  161.2138 N.pl3   1  UNL1       -0.3425
      7 N         138.7145  140.0794  158.6651 N.ar    1  UNL1       -0.2093
      8 C         139.0651  139.6656  157.2666 C.ar    1  UNL1        0.2014
      9 N         140.2692  138.8061  157.0184 N.ar    1  UNL1       -0.2050
     10 C         141.1225  138.3604  158.1686 C.ar    1  UNL1        0.1653
     11 H         139.7773  139.7550  161.9688 H       1  UNL1        0.1437
     12 H         138.4270  140.6117  161.3768 H       1  UNL1        0.1437
     13 C         141.8268  138.3462  161.9857 C.ar    1  UNL1        0.0195
     14 C         141.1803  137.3178  162.8656 C.ar    1  UNL1        0.0016
     15 C         141.2138  137.4786  164.3566 C.ar    1  UNL1        0.0001
     16 C         141.8939  138.6678  164.9676 C.ar    1  UNL1        0.0030
     17 C         141.9275  138.8286  166.4586 C.ar    1  UNL1        0.0369
     18 C         142.6075  140.0178  167.0696 C.ar    1  UNL1        0.1384
     19 C         143.2540  141.0462  166.1895 C.ar    1  UNL1        0.0369
     20 C         143.2205  140.8854  164.6986 C.ar    1  UNL1        0.0031
     21 C         142.5404  139.6962  164.0876 C.ar    1  UNL1        0.0002
     22 C         142.5068  139.5354  162.5967 C.ar    1  UNL1        0.0016
     23 O         142.6411  140.1785  168.5605 O.3     1  UNL1       -0.4792
     24 C         142.9637  141.5135  169.1639 C.3     1  UNL1        0.1661
     25 C         142.5107  142.8172  169.7512 C.3     1  UNL1        0.0472
     26 C         143.9755  142.5218  169.6216 C.3     1  UNL1        0.0472
     27 C         143.0612  136.8894  157.0627 C.3     1  UNL1        0.1291
     28 C         141.9799  131.1632  155.6339 C.3     1  UNL1        0.0896
     29 N         142.2502  132.5948  155.9911 N.3     1  UNL1       -0.2715
     30 C         143.2918  132.9278  157.0179 C.3     1  UNL1        0.0722
     31 C         143.5621  134.3594  157.3751 C.3     1  UNL1        0.0194
     32 C         142.7909  135.4579  156.7055 C.3     1  UNL1        0.0272
     33 C         141.7493  135.1249  155.6788 C.3     1  UNL1        0.0194
     34 C         141.4789  133.6934  155.3216 C.3     1  UNL1        0.0722
@<TRIPOS>BOND
     1    28    29    1
     2    29    30    1
     3    30    31    1
     4    31    32    1
     5    32    27    1
     6    27     1    1
     7     1     2   ar
     8     2     3   ar
     9     3    13    1
    10    13    14   ar
    11    14    15   ar
    12    15    16   ar
    13    16    17   ar
    14    17    18   ar
    15    18    23    1
    16    23    24    1
    17    24    25    1
    18    25    26    1
    19    18    19   ar
    20    19    20   ar
    21    20    21   ar
    22    21    22   ar
    23     3     4   ar
    24     4     5   ar
    25     5     6    1
    26     5     7   ar
    27     7     8   ar
    28     8     9   ar
    29     9    10   ar
    30    32    33    1
    31    33    34    1
    32    34    29    1
    33    10     1   ar
    34    22    13   ar
    35    10     4   ar
    36    21    16   ar
    37    26    24    1
    38     6    11    1
    39     6    12    1
@<TRIPOS>MOLECULE
*****
 34 39 0 0 0
SMALL
GASTEIGER

@<TRIPOS>ATOM
      1 N         144.0337  141.4538  158.5036 N.ar    1  UNL1       -0.2340
      2 N         143.9799  141.7085  159.9808 N.ar    1  UNL1       -0.1679
      3 C         143.5780  140.4313  160.6570 C.ar    1  UNL1        0.1065
      4 C         143.3833  139.3873  159.5977 C.ar    1  UNL1        0.0860
      5 C         142.9859  137.9429  159.6730 C.ar    1  UNL1        0.1316
      6 N         142.7043  137.3110  161.0040 N.pl3   1  UNL1       -0.3425
      7 N         142.8702  137.1304  158.4175 N.ar    1  UNL1       -0.2093
      8 C         143.1518  137.7623  157.0866 C.ar    1  UNL1        0.2014
      9 N         143.5492  139.2068  157.0113 N.ar    1  UNL1       -0.2050
     10 C         143.6649  140.0192  158.2668 C.ar    1  UNL1        0.1653
     11 H         142.7803  137.8443  161.8280 H       1  UNL1        0.1437
     12 H         142.4435  136.3629  161.0534 H       1  UNL1        0.1437
     13 C         143.4017  140.2329  162.1334 C.ar    1  UNL1        0.0195
     14 C         144.5652  139.8024  162.9765 C.ar    1  UNL1        0.0016
     15 C         144.3888  139.6041  164.4528 C.ar    1  UNL1        0.0001
     16 C         143.0490  139.8362  165.0860 C.ar    1  UNL1        0.0030
     17 C         142.8726  139.6378  166.5624 C.ar    1  UNL1        0.0369
     18 C         141.5328  139.8700  167.1956 C.ar    1  UNL1        0.1384
     19 C         140.3693  140.3005  166.3524 C.ar    1  UNL1        0.0369
     20 C         140.5456  140.4989  164.8761 C.ar    1  UNL1        0.0031
     21 C         141.8855  140.2667  164.2429 C.ar    1  UNL1        0.0002
     22 C         142.0618  140.4651  162.7666 C.ar    1  UNL1        0.0016
     23 O         141.3565  139.6716  168.6719 O.3     1  UNL1       -0.4792
     24 C         140.2548  140.3851  169.3982 C.3     1  UNL1        0.1661
     25 C         139.7195  141.6247  170.0515 C.3     1  UNL1        0.0472
     26 C         138.8821  140.3811  170.0028 C.3     1  UNL1        0.0472
     27 C         144.3931  142.4575  157.4484 C.3     1  UNL1        0.1291
     28 C         149.2899  141.6443  154.0779 C.3     1  UNL1        0.0896
     29 N         148.0657  141.8476  154.9206 N.3     1  UNL1       -0.2715
     30 C         146.7145  141.4831  154.3807 C.3     1  UNL1        0.0722
     31 C         145.4903  141.6864  155.2232 C.3     1  UNL1        0.0194
     32 C         145.6173  142.2542  156.6058 C.3     1  UNL1        0.0272
     33 C         146.9684  142.6188  157.1457 C.3     1  UNL1        0.0194
     34 C         148.1926  142.4155  156.3031 C.3     1  UNL1        0.0722
@<TRIPOS>BOND
     1    28    29    1
     2    29    30    1
     3    30    31    1
     4    31    32    1
     5    32    27    1
     6    27     1    1
     7     1     2   ar
     8     2     3   ar
     9     3    13    1
    10    13    14   ar
    11    14    15   ar
    12    15    16   ar
    13    16    17   ar
    14    17    18   ar
    15    18    23    1
    16    23    24    1
    17    24    25    1
    18    25    26    1
    19    18    19   ar
    20    19    20   ar
    21    20    21   ar
    22    21    22   ar
    23     3     4   ar
    24     4     5   ar
    25     5     6    1
    26     5     7   ar
    27     7     8   ar
    28     8     9   ar
    29     9    10   ar
    30    32    33    1
    31    33    34    1
    32    34    29    1
    33    10     1   ar
    34    22    13   ar
    35    10     4   ar
    36    21    16   ar
    37    26    24    1
    38     6    11    1
    39     6    12    1
@<TRIPOS>MOLECULE
*****
 34 39 0 0 0
SMALL
GASTEIGER

@<TRIPOS>ATOM
      1 N         141.3816  138.5489  158.6291 N.ar    1  UNL1       -0.2340
      2 N         141.4738  138.3188  160.1084 N.ar    1  UNL1       -0.1679
      3 C         140.2155  138.8392  160.7377 C.ar    1  UNL1        0.1065
      4 C         139.3457  139.3909  159.6473 C.ar    1  UNL1        0.0860
      5 C         137.9906  140.0335  159.6727 C.ar    1  UNL1        0.1316
      6 N         137.2699  140.2129  160.9759 N.pl3   1  UNL1       -0.3425
      7 N         137.3561  140.4967  158.3948 N.ar    1  UNL1       -0.2093
      8 C         138.0767  140.3173  157.0916 C.ar    1  UNL1        0.2014
      9 N         139.4319  139.6747  157.0662 N.ar    1  UNL1       -0.2050
     10 C         140.0664  139.2116  158.3440 C.ar    1  UNL1        0.1653
     11 H         137.6864  139.9089  161.8146 H       1  UNL1        0.1437
     12 H         136.3805  140.6346  160.9926 H       1  UNL1        0.1437
     13 C         139.8851  138.8125  162.2007 C.ar    1  UNL1        0.0195
     14 C         139.1813  137.6258  162.7891 C.ar    1  UNL1        0.0016
     15 C         138.8508  137.5992  164.2519 C.ar    1  UNL1        0.0001
     16 C         139.2242  138.7593  165.1264 C.ar    1  UNL1        0.0030
     17 C         138.8937  138.7327  166.5894 C.ar    1  UNL1        0.0369
     18 C         139.2670  139.8928  167.4638 C.ar    1  UNL1        0.1384
     19 C         139.9709  141.0796  166.8754 C.ar    1  UNL1        0.0369
     20 C         140.3013  141.1062  165.4125 C.ar    1  UNL1        0.0031
     21 C         139.9280  139.9461  164.5380 C.ar    1  UNL1        0.0002
     22 C         140.2584  139.9727  163.0751 C.ar    1  UNL1        0.0016
     23 O         138.9366  139.8662  168.9267 O.3     1  UNL1       -0.4792
     24 C         139.6645  140.7706  169.8766 C.3     1  UNL1        0.1661
     25 C         139.9771  142.1506  170.3746 C.3     1  UNL1        0.0472
     26 C         140.6125  140.9571  171.0240 C.3     1  UNL1        0.0472
     27 C         142.4220  138.1811  157.6130 C.3     1  UNL1        0.1291
     28 C         146.5357  142.2141  155.9360 C.3     1  UNL1        0.0896
     29 N         145.5073  141.2058  156.3553 N.3     1  UNL1       -0.2715
     30 C         144.8156  141.3458  157.6789 C.3     1  UNL1        0.0722
     31 C         143.7872  140.3376  158.0982 C.3     1  UNL1        0.0194
     32 C         143.4504  139.1893  157.1938 C.3     1  UNL1        0.0272
     33 C         144.1420  139.0492  155.8701 C.3     1  UNL1        0.0194
     34 C         145.1705  140.0575  155.4509 C.3     1  UNL1        0.0722
@<TRIPOS>BOND
     1    28    29    1
     2    29    30    1
     3    30    31    1
     4    31    32    1
     5    32    27    1
     6    27     1    1
     7     1     2   ar
     8     2     3   ar
     9     3    13    1
    10    13    14   ar
    11    14    15   ar
    12    15    16   ar
    13    16    17   ar
    14    17    18   ar
    15    18    23    1
    16    23    24    1
    17    24    25    1
    18    25    26    1
    19    18    19   ar
    20    19    20   ar
    21    20    21   ar
    22    21    22   ar
    23     3     4   ar
    24     4     5   ar
    25     5     6    1
    26     5     7   ar
    27     7     8   ar
    28     8     9   ar
    29     9    10   ar
    30    32    33    1
    31    33    34    1
    32    34    29    1
    33    10     1   ar
    34    22    13   ar
    35    10     4   ar
    36    21    16   ar
    37    26    24    1
    38     6    11    1
    39     6    12    1
@<TRIPOS>MOLECULE
*****
 34 39 0 0 0
SMALL
GASTEIGER

@<TRIPOS>ATOM
      1 N         142.7791  136.3942  156.7325 N.ar    1  UNL1       -0.2340
      2 N         143.0100  137.1994  157.9768 N.ar    1  UNL1       -0.1679
      3 C         141.7975  138.0513  158.2093 C.ar    1  UNL1        0.1065
      4 C         140.8172  137.7726  157.1086 C.ar    1  UNL1        0.0860
      5 C         139.4506  138.3191  156.8195 C.ar    1  UNL1        0.1316
      6 N         138.8439  139.3433  157.7323 N.pl3   1  UNL1       -0.3425
      7 N         138.6906  137.8415  155.6177 N.ar    1  UNL1       -0.2093
      8 C         139.2973  136.8174  154.7050 C.ar    1  UNL1        0.2014
      9 N         140.6640  136.2709  154.9941 N.ar    1  UNL1       -0.2050
     10 C         141.4239  136.7485  156.1958 C.ar    1  UNL1        0.1653
     11 H         139.3427  139.6567  158.5210 H       1  UNL1        0.1437
     12 H         137.9469  139.7020  157.5425 H       1  UNL1        0.1437
     13 C         141.5999  139.0130  159.3434 C.ar    1  UNL1        0.0195
     14 C         142.0721  140.4309  159.2152 C.ar    1  UNL1        0.0016
     15 C         141.8745  141.3926  160.3493 C.ar    1  UNL1        0.0001
     16 C         141.2046  140.9364  161.6114 C.ar    1  UNL1        0.0030
     17 C         141.0070  141.8981  162.7455 C.ar    1  UNL1        0.0369
     18 C         140.3371  141.4419  164.0077 C.ar    1  UNL1        0.1384
     19 C         139.8648  140.0239  164.1358 C.ar    1  UNL1        0.0369
     20 C         140.0624  139.0622  163.0017 C.ar    1  UNL1        0.0031
     21 C         140.7323  139.5185  161.7396 C.ar    1  UNL1        0.0002
     22 C         140.9299  138.5568  160.6055 C.ar    1  UNL1        0.0016
     23 O         140.1394  142.4036  165.1417 O.3     1  UNL1       -0.4792
     24 C         139.2015  143.5638  164.9864 C.3     1  UNL1        0.1661
     25 C         138.6518  144.8662  165.4882 C.3     1  UNL1        0.0472
     26 C         138.1266  144.2711  164.2155 C.3     1  UNL1        0.0472
     27 C         143.7356  135.4079  156.1304 C.3     1  UNL1        0.1291
     28 C         143.1138  129.5492  157.2660 C.3     1  UNL1        0.0896
     29 N         143.2693  131.0139  156.9821 N.3     1  UNL1       -0.2715
     30 C         142.3274  131.6987  156.0366 C.3     1  UNL1        0.0722
     31 C         142.4828  133.1634  155.7527 C.3     1  UNL1        0.0194
     32 C         143.5801  133.9432  156.4143 C.3     1  UNL1        0.0272
     33 C         144.5220  133.2584  157.3598 C.3     1  UNL1        0.0194
     34 C         144.3666  131.7938  157.6437 C.3     1  UNL1        0.0722
@<TRIPOS>BOND
     1    28    29    1
     2    29    30    1
     3    30    31    1
     4    31    32    1
     5    32    27    1
     6    27     1    1
     7     1     2   ar
     8     2     3   ar
     9     3    13    1
    10    13    14   ar
    11    14    15   ar
    12    15    16   ar
    13    16    17   ar
    14    17    18   ar
    15    18    23    1
    16    23    24    1
    17    24    25    1
    18    25    26    1
    19    18    19   ar
    20    19    20   ar
    21    20    21   ar
    22    21    22   ar
    23     3     4   ar
    24     4     5   ar
    25     5     6    1
    26     5     7   ar
    27     7     8   ar
    28     8     9   ar
    29     9    10   ar
    30    32    33    1
    31    33    34    1
    32    34    29    1
    33    10     1   ar
    34    22    13   ar
    35    10     4   ar
    36    21    16   ar
    37    26    24    1
    38     6    11    1
    39     6    12    1
@<TRIPOS>MOLECULE
*****
 34 39 0 0 0
SMALL
GASTEIGER

@<TRIPOS>ATOM
      1 N         144.0175  141.5683  158.6138 N.ar    1  UNL1       -0.2340
      2 N         144.1608  141.1904  160.0583 N.ar    1  UNL1       -0.1679
      3 C         143.4999  142.2544  160.8836 C.ar    1  UNL1        0.1065
      4 C         142.9481  143.2899  159.9491 C.ar    1  UNL1        0.0860
      5 C         142.1956  144.5641  160.1943 C.ar    1  UNL1        0.1316
      6 N         141.8758  144.9881  161.5972 N.pl3   1  UNL1       -0.3425
      7 N         141.7630  145.4144  159.0368 N.ar    1  UNL1       -0.2093
      8 C         142.0829  144.9904  157.6339 C.ar    1  UNL1        0.2014
      9 N         142.8354  143.7161  157.3888 N.ar    1  UNL1       -0.2050
     10 C         143.2679  142.8659  158.5463 C.ar    1  UNL1        0.1653
     11 H         142.1597  144.4301  162.3569 H       1  UNL1        0.1437
     12 H         141.3819  145.8245  161.7581 H       1  UNL1        0.1437
     13 C         143.4071  142.2787  162.3806 C.ar    1  UNL1        0.0195
     14 C         144.4774  142.9518  163.1875 C.ar    1  UNL1        0.0016
     15 C         144.3846  142.9760  164.6844 C.ar    1  UNL1        0.0001
     16 C         143.2214  142.3272  165.3744 C.ar    1  UNL1        0.0030
     17 C         143.1286  142.3515  166.8713 C.ar    1  UNL1        0.0369
     18 C         141.9654  141.7026  167.5612 C.ar    1  UNL1        0.1384
     19 C         140.8950  141.0295  166.7542 C.ar    1  UNL1        0.0369
     20 C         140.9878  141.0053  165.2573 C.ar    1  UNL1        0.0031
     21 C         142.1510  141.6541  164.5674 C.ar    1  UNL1        0.0002
     22 C         142.2439  141.6299  163.0705 C.ar    1  UNL1        0.0016
     23 O         141.8725  141.7269  169.0581 O.3     1  UNL1       -0.4792
     24 C         140.9283  142.6752  169.7358 C.3     1  UNL1        0.1661
     25 C         140.4131  144.0685  169.9436 C.3     1  UNL1        0.0472
     26 C         139.8080  142.9243  170.7016 C.3     1  UNL1        0.0472
     27 C         144.5331  140.7860  157.4424 C.3     1  UNL1        0.1291
     28 C         147.6596  143.5499  153.1312 C.3     1  UNL1        0.0896
     29 N         146.8779  142.8589  154.2090 N.3     1  UNL1       -0.2715
     30 C         147.3372  142.9354  155.6349 C.3     1  UNL1        0.0722
     31 C         146.5556  142.2444  156.7127 C.3     1  UNL1        0.0194
     32 C         145.3147  141.4770  156.3646 C.3     1  UNL1        0.0272
     33 C         144.8554  141.4005  154.9387 C.3     1  UNL1        0.0194
     34 C         145.6370  142.0914  153.8609 C.3     1  UNL1        0.0722
@<TRIPOS>BOND
     1    28    29    1
     2    29    30    1
     3    30    31    1
     4    31    32    1
     5    32    27    1
     6    27     1    1
     7     1     2   ar
     8     2     3   ar
     9     3    13    1
    10    13    14   ar
    11    14    15   ar
    12    15    16   ar
    13    16    17   ar
    14    17    18   ar
    15    18    23    1
    16    23    24    1
    17    24    25    1
    18    25    26    1
    19    18    19   ar
    20    19    20   ar
    21    20    21   ar
    22    21    22   ar
    23     3     4   ar
    24     4     5   ar
    25     5     6    1
    26     5     7   ar
    27     7     8   ar
    28     8     9   ar
    29     9    10   ar
    30    32    33    1
    31    33    34    1
    32    34    29    1
    33    10     1   ar
    34    22    13   ar
    35    10     4   ar
    36    21    16   ar
    37    26    24    1
    38     6    11    1
    39     6    12    1
@<TRIPOS>MOLECULE
*****
 34 39 0 0 0
SMALL
GASTEIGER

@<TRIPOS>ATOM
      1 N         144.1132  142.6033  158.7454 N.ar    1  UNL1       -0.2340
      2 N         144.4194  142.1766  160.1505 N.ar    1  UNL1       -0.1679
      3 C         143.4631  142.8800  161.0673 C.ar    1  UNL1        0.1065
      4 C         142.5658  143.7413  160.2289 C.ar    1  UNL1        0.0860
      5 C         141.4347  144.6593  160.5868 C.ar    1  UNL1        0.1316
      6 N         141.0330  144.8303  162.0218 N.pl3   1  UNL1       -0.3425
      7 N         140.7054  145.4062  159.5096 N.ar    1  UNL1       -0.2093
      8 C         141.1072  145.2352  158.0746 C.ar    1  UNL1        0.2014
      9 N         142.2383  144.3172  157.7168 N.ar    1  UNL1       -0.2050
     10 C         142.9675  143.5703  158.7939 C.ar    1  UNL1        0.1653
     11 H         141.5116  144.3401  162.7288 H       1  UNL1        0.1437
     12 H         140.2906  145.4328  162.2567 H       1  UNL1        0.1437
     13 C         143.4128  142.7456  162.5605 C.ar    1  UNL1        0.0195
     14 C         144.1023  143.7565  163.4281 C.ar    1  UNL1        0.0016
     15 C         144.0521  143.6221  164.9212 C.ar    1  UNL1        0.0001
     16 C         143.3123  142.4769  165.5467 C.ar    1  UNL1        0.0030
     17 C         143.2620  142.3425  167.0399 C.ar    1  UNL1        0.0369
     18 C         142.5222  141.1973  167.6653 C.ar    1  UNL1        0.1384
     19 C         141.8327  140.1864  166.7976 C.ar    1  UNL1        0.0369
     20 C         141.8830  140.3208  165.3046 C.ar    1  UNL1        0.0031
     21 C         142.6228  141.4660  164.6791 C.ar    1  UNL1        0.0002
     22 C         142.6731  141.6004  163.1860 C.ar    1  UNL1        0.0016
     23 O         142.4720  141.0629  169.1584 O.3     1  UNL1       -0.4792
     24 C         141.1507  140.9233  169.8549 C.3     1  UNL1        0.1661
     25 C         140.1831  140.0999  170.6521 C.3     1  UNL1        0.0472
     26 C         139.8301  141.5051  170.2639 C.3     1  UNL1        0.0472
     27 C         144.8272  142.1435  157.5089 C.3     1  UNL1        0.1291
     28 C         143.7634  136.6715  155.2896 C.3     1  UNL1        0.0896
     29 N         144.0294  138.0396  155.8445 N.3     1  UNL1       -0.2715
     30 C         143.2264  138.5473  157.0053 C.3     1  UNL1        0.0722
     31 C         143.4923  139.9153  157.5601 C.3     1  UNL1        0.0194
     32 C         144.5613  140.7756  156.9541 C.3     1  UNL1        0.0272
     33 C         145.3643  140.2679  155.7933 C.3     1  UNL1        0.0194
     34 C         145.0983  138.8999  155.2385 C.3     1  UNL1        0.0722
@<TRIPOS>BOND
     1    28    29    1
     2    29    30    1
     3    30    31    1
     4    31    32    1
     5    32    27    1
     6    27     1    1
     7     1     2   ar
     8     2     3   ar
     9     3    13    1
    10    13    14   ar
    11    14    15   ar
    12    15    16   ar
    13    16    17   ar
    14    17    18   ar
    15    18    23    1
    16    23    24    1
    17    24    25    1
    18    25    26    1
    19    18    19   ar
    20    19    20   ar
    21    20    21   ar
    22    21    22   ar
    23     3     4   ar
    24     4     5   ar
    25     5     6    1
    26     5     7   ar
    27     7     8   ar
    28     8     9   ar
    29     9    10   ar
    30    32    33    1
    31    33    34    1
    32    34    29    1
    33    10     1   ar
    34    22    13   ar
    35    10     4   ar
    36    21    16   ar
    37    26    24    1
    38     6    11    1
    39     6    12    1
