@<TRIPOS>MOLECULE
*****
 25 29 0 0 0
SMALL
GASTEIGER

@<TRIPOS>ATOM
      1 N         140.5552  139.2969  170.9535 N.pl3   1  UNL1       -0.3133
      2 C         141.2254  140.0851  169.8674 C.2     1  UNL1        0.2770
      3 N         140.7650  140.1929  168.4440 N.2     1  UNL1       -0.2202
      4 C         141.7287  141.0784  167.7109 C.3     1  UNL1        0.1581
      5 C         142.7847  141.5178  168.6815 C.3     1  UNL1        0.2351
      6 O         142.4736  140.9039  170.0143 O.2     1  UNL1       -0.4478
      7 C         140.6085  140.5590  166.8592 C.ar    1  UNL1        0.0361
      8 C         139.5667  139.6602  167.4567 C.ar    1  UNL1        0.0073
      9 C         138.4465  139.1408  166.6051 C.ar    1  UNL1        0.0345
     10 BR        137.4048  138.2420  167.2025 Br      1  UNL1       -0.0490
     11 C         138.3681  139.5202  165.1560 C.ar    1  UNL1        0.0098
     12 C         139.4098  140.4190  164.5585 C.ar    1  UNL1        0.0371
     13 C         140.5300  140.9384  165.4101 C.ar    1  UNL1        0.1361
     14 O         141.5718  141.8372  164.8127 O.3     1  UNL1       -0.4826
     15 C         142.6920  142.3566  165.6644 C.3     1  UNL1        0.1395
     16 C         143.8642  142.9503  166.3879 C.3     1  UNL1        0.0403
     17 C         144.6411  143.7801  165.4092 C.3     1  UNL1        0.0037
     18 C         143.9490  143.6993  164.0808 C.3     1  UNL1        0.0037
     19 C         142.7444  142.8195  164.2386 C.3     1  UNL1        0.0403
     20 C         142.7704  141.9772  167.1135 C.3     1  UNL1        0.1141
     21 C         142.4579  141.8323  166.8759 C.3     1  UNL1        0.1501
     22 O         142.7864  141.9846  167.1256 O.3     1  UNL1       -0.3532
     23 C         142.4579  141.8323  166.8759 C.3     1  UNL1        0.1501
     24 H         139.7351  138.7885  170.7583 H       1  UNL1        0.1466
     25 H         140.9355  139.2880  171.8616 H       1  UNL1        0.1466
@<TRIPOS>BOND
     1     1     2    1
     2     2     3    2
     3     3     4    1
     4     4     5    1
     5     5     6    1
     6     4     7    1
     7     7     8   ar
     8     8     9   ar
     9     9    10    1
    10     9    11   ar
    11    11    12   ar
    12    12    13   ar
    13    13    14    1
    14    14    15    1
    15    15    16    1
    16    16    17    1
    17    17    18    1
    18    18    19    1
    19    15    20    1
    20    20    21    1
    21    21    22    1
    22    22    23    1
    23     6     2    1
    24    13     7   ar
    25    19    15    1
    26    23    20    1
    27    20     4    1
    28     1    24    1
    29     1    25    1
@<TRIPOS>MOLECULE
*****
 25 29 0 0 0
SMALL
GASTEIGER

@<TRIPOS>ATOM
      1 N         138.2971  140.0162  170.4407 N.pl3   1  UNL1       -0.3133
      2 C         138.4941  139.6682  168.9950 C.2     1  UNL1        0.2770
      3 N         139.6107  140.1493  168.1166 N.2     1  UNL1       -0.2202
      4 C         139.4159  139.5565  166.7526 C.3     1  UNL1        0.1581
      5 C         138.1788  138.7088  166.7880 C.3     1  UNL1        0.2351
      6 O         137.6091  138.7779  168.1739 O.2     1  UNL1       -0.4478
      7 C         140.6256  140.4358  166.8684 C.ar    1  UNL1        0.0361
      8 C         140.9487  141.0984  168.1748 C.ar    1  UNL1        0.0073
      9 C         142.1584  141.9778  168.2907 C.ar    1  UNL1        0.0345
     10 BR        142.4815  142.6404  169.5970 Br      1  UNL1       -0.0490
     11 C         143.0449  142.1944  167.1003 C.ar    1  UNL1        0.0098
     12 C         142.7218  141.5317  165.7939 C.ar    1  UNL1        0.0371
     13 C         141.5121  140.6524  165.6780 C.ar    1  UNL1        0.1361
     14 O         141.1889  139.9897  164.3717 O.3     1  UNL1       -0.4826
     15 C         139.9793  139.1104  164.2558 C.3     1  UNL1        0.1395
     16 C         138.8102  138.2090  163.9899 C.3     1  UNL1        0.0403
     17 C         138.8769  137.7743  162.5559 C.3     1  UNL1        0.0037
     18 C         140.0872  138.4071  161.9355 C.3     1  UNL1        0.0037
     19 C         140.7685  139.2328  162.9861 C.3     1  UNL1        0.0403
     20 C         139.0927  138.8938  165.4463 C.3     1  UNL1        0.1141
     21 C         139.4302  139.1391  165.4786 C.3     1  UNL1        0.1501
     22 O         139.0755  138.8812  165.4446 O.3     1  UNL1       -0.3532
     23 C         139.4302  139.1391  165.4786 C.3     1  UNL1        0.1501
     24 H         138.9355  140.6121  170.8950 H       1  UNL1        0.1466
     25 H         137.5292  139.6486  170.9352 H       1  UNL1        0.1466
@<TRIPOS>BOND
     1     1     2    1
     2     2     3    2
     3     3     4    1
     4     4     5    1
     5     5     6    1
     6     4     7    1
     7     7     8   ar
     8     8     9   ar
     9     9    10    1
    10     9    11   ar
    11    11    12   ar
    12    12    13   ar
    13    13    14    1
    14    14    15    1
    15    15    16    1
    16    16    17    1
    17    17    18    1
    18    18    19    1
    19    15    20    1
    20    20    21    1
    21    21    22    1
    22    22    23    1
    23     6     2    1
    24    13     7   ar
    25    19    15    1
    26    23    20    1
    27    20     4    1
    28     1    24    1
    29     1    25    1
@<TRIPOS>MOLECULE
*****
 25 29 0 0 0
SMALL
GASTEIGER

@<TRIPOS>ATOM
      1 N         144.1056  137.9700  161.1710 N.pl3   1  UNL1       -0.3133
      2 C         142.9826  137.9990  162.1649 C.2     1  UNL1        0.2770
      3 N         142.8145  138.9917  163.2766 N.2     1  UNL1       -0.2202
      4 C         141.5584  138.6465  164.0205 C.3     1  UNL1        0.1581
      5 C         140.9503  137.4403  163.3683 C.3     1  UNL1        0.2351
      6 O         141.8304  137.0401  162.2215 O.2     1  UNL1       -0.4478
      7 C         142.2807  139.8431  164.5652 C.ar    1  UNL1        0.0361
      8 C         143.5541  140.3072  163.9223 C.ar    1  UNL1        0.0073
      9 C         144.2763  141.5037  164.4670 C.ar    1  UNL1        0.0345
     10 BR        145.5497  141.9679  163.8243 Br      1  UNL1       -0.0490
     11 C         143.7252  142.2360  165.6544 C.ar    1  UNL1        0.0098
     12 C         142.4518  141.7719  166.2972 C.ar    1  UNL1        0.0371
     13 C         141.7296  140.5754  165.7526 C.ar    1  UNL1        0.1361
     14 O         140.4562  140.1112  166.3953 O.3     1  UNL1       -0.4826
     15 C         139.7340  138.9147  165.8506 C.3     1  UNL1        0.1395
     16 C         138.9056  137.7409  165.4193 C.3     1  UNL1        0.0403
     17 C         137.7251  137.6436  166.3397 C.3     1  UNL1        0.0037
     18 C         137.8239  138.7572  167.3397 C.3     1  UNL1        0.0037
     19 C         139.0655  139.5428  167.0374 C.3     1  UNL1        0.0403
     20 C         140.2851  138.1823  164.6632 C.3     1  UNL1        0.1141
     21 C         140.4866  138.5162  164.8151 C.3     1  UNL1        0.1501
     22 O         140.2748  138.1653  164.6554 O.3     1  UNL1       -0.3532
     23 C         140.4866  138.5162  164.8151 C.3     1  UNL1        0.1501
     24 H         144.8199  138.6461  161.2155 H       1  UNL1        0.1466
     25 H         144.1285  137.2750  160.4741 H       1  UNL1        0.1466
@<TRIPOS>BOND
     1     1     2    1
     2     2     3    2
     3     3     4    1
     4     4     5    1
     5     5     6    1
     6     4     7    1
     7     7     8   ar
     8     8     9   ar
     9     9    10    1
    10     9    11   ar
    11    11    12   ar
    12    12    13   ar
    13    13    14    1
    14    14    15    1
    15    15    16    1
    16    16    17    1
    17    17    18    1
    18    18    19    1
    19    15    20    1
    20    20    21    1
    21    21    22    1
    22    22    23    1
    23     6     2    1
    24    13     7   ar
    25    19    15    1
    26    23    20    1
    27    20     4    1
    28     1    24    1
    29     1    25    1
@<TRIPOS>MOLECULE
*****
 25 29 0 0 0
SMALL
GASTEIGER

@<TRIPOS>ATOM
      1 N         137.7384  143.6143  161.9439 N.pl3   1  UNL1       -0.3133
      2 C         138.4163  143.3221  163.2497 C.2     1  UNL1        0.2770
      3 N         138.7498  141.9612  163.7848 N.2     1  UNL1       -0.2202
      4 C         139.4194  142.1375  165.1154 C.3     1  UNL1        0.1581
      5 C         139.4997  143.6076  165.4026 C.3     1  UNL1        0.2351
      6 O         138.8798  144.3397  164.2495 O.2     1  UNL1       -0.4478
      7 C         139.2687  140.7061  164.6933 C.ar    1  UNL1        0.0361
      8 C         138.6167  140.3751  163.3836 C.ar    1  UNL1        0.0073
      9 C         138.4659  138.9436  162.9615 C.ar    1  UNL1        0.0345
     10 BR        137.8139  138.6126  161.6518 Br      1  UNL1       -0.0490
     11 C         138.9672  137.8432  163.8490 C.ar    1  UNL1        0.0098
     12 C         139.6193  138.1742  165.1588 C.ar    1  UNL1        0.0371
     13 C         139.7700  139.6057  165.5809 C.ar    1  UNL1        0.1361
     14 O         140.4220  139.9367  166.8906 O.3     1  UNL1       -0.4826
     15 C         140.5727  141.3682  167.3127 C.3     1  UNL1        0.1395
     16 C         140.7922  142.7454  167.8651 C.3     1  UNL1        0.0403
     17 C         141.4749  142.6085  169.1937 C.3     1  UNL1        0.0037
     18 C         141.6773  141.1467  169.4624 C.3     1  UNL1        0.0037
     19 C         141.1197  140.3801  168.2999 C.3     1  UNL1        0.0403
     20 C         140.0714  142.4686  166.4251 C.3     1  UNL1        0.1141
     21 C         140.0294  142.0692  166.3073 C.3     1  UNL1        0.1501
     22 O         140.0736  142.4890  166.4311 O.3     1  UNL1       -0.3532
     23 C         140.0294  142.0692  166.3073 C.3     1  UNL1        0.1501
     24 H         137.4702  142.8746  161.3522 H       1  UNL1        0.1466
     25 H         137.5615  144.5458  161.6787 H       1  UNL1        0.1466
@<TRIPOS>BOND
     1     1     2    1
     2     2     3    2
     3     3     4    1
     4     4     5    1
     5     5     6    1
     6     4     7    1
     7     7     8   ar
     8     8     9   ar
     9     9    10    1
    10     9    11   ar
    11    11    12   ar
    12    12    13   ar
    13    13    14    1
    14    14    15    1
    15    15    16    1
    16    16    17    1
    17    17    18    1
    18    18    19    1
    19    15    20    1
    20    20    21    1
    21    21    22    1
    22    22    23    1
    23     6     2    1
    24    13     7   ar
    25    19    15    1
    26    23    20    1
    27    20     4    1
    28     1    24    1
    29     1    25    1
@<TRIPOS>MOLECULE
*****
 25 29 0 0 0
SMALL
GASTEIGER

@<TRIPOS>ATOM
      1 N         144.6856  143.8502  161.8478 N.pl3   1  UNL1       -0.3133
      2 C         144.1831  143.3098  163.1538 C.2     1  UNL1        0.2770
      3 N         142.8149  143.5257  163.7293 N.2     1  UNL1       -0.2202
      4 C         142.7467  142.8081  165.0447 C.3     1  UNL1        0.1581
      5 C         144.0729  142.1486  165.2821 C.3     1  UNL1        0.2351
      6 O         144.9606  142.4587  164.1134 O.2     1  UNL1       -0.4478
      7 C         141.4803  143.5204  164.6721 C.ar    1  UNL1        0.0361
      8 C         141.4000  144.2822  163.3824 C.ar    1  UNL1        0.0073
      9 C         140.1336  144.9945  163.0098 C.ar    1  UNL1        0.0345
     10 BR        140.0532  145.7564  161.7201 Br      1  UNL1       -0.0490
     11 C         138.9476  144.9450  163.9268 C.ar    1  UNL1        0.0098
     12 C         139.0279  144.1832  165.2164 C.ar    1  UNL1        0.0371
     13 C         140.2943  143.4708  165.5891 C.ar    1  UNL1        0.1361
     14 O         140.3747  142.7090  166.8787 O.3     1  UNL1       -0.4826
     15 C         141.6411  141.9967  167.2513 C.3     1  UNL1        0.1395
     16 C         142.8338  141.2393  167.7551 C.3     1  UNL1        0.0403
     17 C         142.4727  140.6331  169.0787 C.3     1  UNL1        0.0037
     18 C         141.0567  141.0157  169.3930 C.3     1  UNL1        0.0037
     19 C         140.5428  141.8585  168.2636 C.3     1  UNL1        0.0403
     20 C         142.8271  142.0462  166.3343 C.3     1  UNL1        0.1141
     21 C         142.4738  142.2450  166.2304 C.3     1  UNL1        0.1501
     22 O         142.8451  142.0361  166.3397 O.3     1  UNL1       -0.3532
     23 C         142.4738  142.2450  166.2304 C.3     1  UNL1        0.1501
     24 H         144.0967  144.4023  161.2843 H       1  UNL1        0.1466
     25 H         145.6043  143.6526  161.5542 H       1  UNL1        0.1466
@<TRIPOS>BOND
     1     1     2    1
     2     2     3    2
     3     3     4    1
     4     4     5    1
     5     5     6    1
     6     4     7    1
     7     7     8   ar
     8     8     9   ar
     9     9    10    1
    10     9    11   ar
    11    11    12   ar
    12    12    13   ar
    13    13    14    1
    14    14    15    1
    15    15    16    1
    16    16    17    1
    17    17    18    1
    18    18    19    1
    19    15    20    1
    20    20    21    1
    21    21    22    1
    22    22    23    1
    23     6     2    1
    24    13     7   ar
    25    19    15    1
    26    23    20    1
    27    20     4    1
    28     1    24    1
    29     1    25    1
@<TRIPOS>MOLECULE
*****
 25 29 0 0 0
SMALL
GASTEIGER

@<TRIPOS>ATOM
      1 N         142.2696  137.6855  162.4993 N.pl3   1  UNL1       -0.3133
      2 C         141.7601  138.2740  163.7815 C.2     1  UNL1        0.2770
      3 N         142.2673  139.5216  164.4417 N.2     1  UNL1       -0.2202
      4 C         141.4747  139.7369  165.6969 C.3     1  UNL1        0.1581
      5 C         140.4776  138.6222  165.8122 C.3     1  UNL1        0.2351
      6 O         140.6540  137.7181  164.6285 O.2     1  UNL1       -0.4478
      7 C         142.5195  140.7840  165.4481 C.ar    1  UNL1        0.0361
      8 C         143.3905  140.6997  164.2297 C.ar    1  UNL1        0.0073
      9 C         144.4354  141.7468  163.9809 C.ar    1  UNL1        0.0345
     10 BR        145.3064  141.6625  162.7626 Br      1  UNL1       -0.0490
     11 C         144.6092  142.8780  164.9504 C.ar    1  UNL1        0.0098
     12 C         143.7382  142.9623  166.1688 C.ar    1  UNL1        0.0371
     13 C         142.6934  141.9153  166.4176 C.ar    1  UNL1        0.1361
     14 O         141.8223  141.9995  167.6359 O.3     1  UNL1       -0.4826
     15 C         140.7775  140.9525  167.8847 C.3     1  UNL1        0.1395
     16 C         139.6963  139.9845  168.2641 C.3     1  UNL1        0.0403
     17 C         139.0854  140.4533  169.5514 C.3     1  UNL1        0.0037
     18 C         139.7890  141.7110  169.9675 C.3     1  UNL1        0.0037
     19 C         140.8348  142.0195  168.9374 C.3     1  UNL1        0.0403
     20 C         140.6036  139.8212  166.9152 C.3     1  UNL1        0.1141
     21 C         140.8951  140.1133  166.8457 C.3     1  UNL1        0.1501
     22 O         140.5887  139.8062  166.9187 O.3     1  UNL1       -0.3532
     23 C         140.8951  140.1133  166.8457 C.3     1  UNL1        0.1501
     24 H         143.0036  138.1259  162.0129 H       1  UNL1        0.1466
     25 H         141.8701  136.8587  162.1441 H       1  UNL1        0.1466
@<TRIPOS>BOND
     1     1     2    1
     2     2     3    2
     3     3     4    1
     4     4     5    1
     5     5     6    1
     6     4     7    1
     7     7     8   ar
     8     8     9   ar
     9     9    10    1
    10     9    11   ar
    11    11    12   ar
    12    12    13   ar
    13    13    14    1
    14    14    15    1
    15    15    16    1
    16    16    17    1
    17    17    18    1
    18    18    19    1
    19    15    20    1
    20    20    21    1
    21    21    22    1
    22    22    23    1
    23     6     2    1
    24    13     7   ar
    25    19    15    1
    26    23    20    1
    27    20     4    1
    28     1    24    1
    29     1    25    1
@<TRIPOS>MOLECULE
*****
 25 29 0 0 0
SMALL
GASTEIGER

@<TRIPOS>ATOM
      1 N         138.8633  137.6920  162.2773 N.pl3   1  UNL1       -0.3133
      2 C         139.0010  138.2946  163.6440 C.2     1  UNL1        0.2770
      3 N         139.6249  139.6206  163.9640 N.2     1  UNL1       -0.2202
      4 C         139.5486  139.8226  165.4484 C.3     1  UNL1        0.1581
      5 C         138.8776  138.6213  166.0457 C.3     1  UNL1        0.2351
      6 O         138.5392  137.6770  164.9305 O.2     1  UNL1       -0.4478
      7 C         140.2015  140.9543  164.7116 C.ar    1  UNL1        0.0361
      8 C         140.3485  140.8923  163.2200 C.ar    1  UNL1        0.0073
      9 C         141.0015  142.0240  162.4832 C.ar    1  UNL1        0.0345
     10 BR        141.1485  141.9621  160.9917 Br      1  UNL1       -0.0490
     11 C         141.5073  143.2175  163.2378 C.ar    1  UNL1        0.0098
     12 C         141.3603  143.2795  164.7293 C.ar    1  UNL1        0.0371
     13 C         140.7074  142.1478  165.4662 C.ar    1  UNL1        0.1361
     14 O         140.5603  142.2097  166.9577 O.3     1  UNL1       -0.4826
     15 C         139.9074  141.0780  167.6946 C.3     1  UNL1        0.1395
     16 C         139.2797  140.0283  168.5629 C.3     1  UNL1        0.0403
     17 C         139.3466  140.5021  169.9846 C.3     1  UNL1        0.0037
     18 C         140.0156  141.8446  169.9948 C.3     1  UNL1        0.0037
     19 C         140.3622  142.2006  168.5795 C.3     1  UNL1        0.0403
     20 C         139.4015  139.8845  166.9399 C.3     1  UNL1        0.1141
     21 C         139.5837  140.2002  166.7343 C.3     1  UNL1        0.1501
     22 O         139.3922  139.8684  166.9504 O.3     1  UNL1       -0.3532
     23 C         139.5837  140.2002  166.7343 C.3     1  UNL1        0.1501
     24 H         139.1994  138.1771  161.4892 H       1  UNL1        0.1466
     25 H         138.4366  136.8115  162.1683 H       1  UNL1        0.1466
@<TRIPOS>BOND
     1     1     2    1
     2     2     3    2
     3     3     4    1
     4     4     5    1
     5     5     6    1
     6     4     7    1
     7     7     8   ar
     8     8     9   ar
     9     9    10    1
    10     9    11   ar
    11    11    12   ar
    12    12    13   ar
    13    13    14    1
    14    14    15    1
    15    15    16    1
    16    16    17    1
    17    17    18    1
    18    18    19    1
    19    15    20    1
    20    20    21    1
    21    21    22    1
    22    22    23    1
    23     6     2    1
    24    13     7   ar
    25    19    15    1
    26    23    20    1
    27    20     4    1
    28     1    24    1
    29     1    25    1
@<TRIPOS>MOLECULE
*****
 25 29 0 0 0
SMALL
GASTEIGER

@<TRIPOS>ATOM
      1 N         145.8009  142.1542  162.9285 N.pl3   1  UNL1       -0.3133
      2 C         144.8332  142.0918  164.0728 C.2     1  UNL1        0.2770
      3 N         143.8021  141.0260  164.2984 N.2     1  UNL1       -0.2202
      4 C         143.0582  141.3597  165.5575 C.3     1  UNL1        0.1581
      5 C         143.6297  142.6318  166.1101 C.3     1  UNL1        0.2351
      6 O         144.7266  143.0842  165.1925 O.2     1  UNL1       -0.4478
      7 C         142.5911  140.1011  164.8883 C.ar    1  UNL1        0.0361
      8 C         143.2428  139.6408  163.6181 C.ar    1  UNL1        0.0073
      9 C         142.7757  138.3822  162.9489 C.ar    1  UNL1        0.0345
     10 BR        143.4274  137.9218  161.6787 Br      1  UNL1       -0.0490
     11 C         141.6569  137.5841  163.5499 C.ar    1  UNL1        0.0098
     12 C         141.0052  138.0444  164.8201 C.ar    1  UNL1        0.0371
     13 C         141.4723  139.3030  165.4893 C.ar    1  UNL1        0.1361
     14 O         140.8206  139.7634  166.7595 O.3     1  UNL1       -0.4826
     15 C         141.2877  141.0220  167.4287 C.3     1  UNL1        0.1395
     16 C         141.6455  142.2532  168.2071 C.3     1  UNL1        0.0403
     17 C         140.7427  142.3241  169.4029 C.3     1  UNL1        0.0037
     18 C         139.8270  141.1367  169.3635 C.3     1  UNL1        0.0037
     19 C         140.1639  140.3319  168.1434 C.3     1  UNL1        0.0403
     20 C         142.4065  141.8201  166.8277 C.3     1  UNL1        0.1141
     21 C         142.2762  141.4690  166.6409 C.3     1  UNL1        0.1501
     22 O         142.4132  141.8380  166.8372 O.3     1  UNL1       -0.3532
     23 C         142.2762  141.4690  166.6409 C.3     1  UNL1        0.1501
     24 H         145.7937  141.4516  162.2389 H       1  UNL1        0.1466
     25 H         146.4433  142.8977  162.8671 H       1  UNL1        0.1466
@<TRIPOS>BOND
     1     1     2    1
     2     2     3    2
     3     3     4    1
     4     4     5    1
     5     5     6    1
     6     4     7    1
     7     7     8   ar
     8     8     9   ar
     9     9    10    1
    10     9    11   ar
    11    11    12   ar
    12    12    13   ar
    13    13    14    1
    14    14    15    1
    15    15    16    1
    16    16    17    1
    17    17    18    1
    18    18    19    1
    19    15    20    1
    20    20    21    1
    21    21    22    1
    22    22    23    1
    23     6     2    1
    24    13     7   ar
    25    19    15    1
    26    23    20    1
    27    20     4    1
    28     1    24    1
    29     1    25    1
@<TRIPOS>MOLECULE
*****
 25 29 0 0 0
SMALL
GASTEIGER

@<TRIPOS>ATOM
      1 N         140.8795  142.4741  161.7832 N.pl3   1  UNL1       -0.3133
      2 C         140.7937  142.5148  163.2802 C.2     1  UNL1        0.2770
      3 N         140.2292  141.4396  164.1604 N.2     1  UNL1       -0.2202
      4 C         140.3439  141.8981  165.5840 C.3     1  UNL1        0.1581
      5 C         140.9794  143.2569  165.5835 C.3     1  UNL1        0.2351
      6 O         141.2573  143.6380  164.1596 O.2     1  UNL1       -0.4478
      7 C         139.7209  140.5425  165.4281 C.ar    1  UNL1        0.0361
      8 C         139.5409  139.9527  164.0607 C.ar    1  UNL1        0.0073
      9 C         138.9179  138.5972  163.9048 C.ar    1  UNL1        0.0345
     10 BR        138.7378  138.0073  162.5374 Br      1  UNL1       -0.0490
     11 C         138.4750  137.8315  165.1162 C.ar    1  UNL1        0.0098
     12 C         138.6550  138.4213  166.4836 C.ar    1  UNL1        0.0371
     13 C         139.2780  139.7769  166.6395 C.ar    1  UNL1        0.1361
     14 O         139.4581  140.3667  168.0069 O.3     1  UNL1       -0.4826
     15 C         140.0811  141.7223  168.1628 C.3     1  UNL1        0.1395
     16 C         140.6848  143.0598  168.4735 C.3     1  UNL1        0.0403
     17 C         140.6659  143.2423  169.9622 C.3     1  UNL1        0.0037
     18 C         140.0505  142.0176  170.5716 C.3     1  UNL1        0.0037
     19 C         139.6891  141.0782  169.4595 C.3     1  UNL1        0.0403
     20 C         140.5240  142.4880  166.9514 C.3     1  UNL1        0.1141
     21 C         140.3502  142.1098  166.9079 C.3     1  UNL1        0.1501
     22 O         140.5329  142.5073  166.9536 O.3     1  UNL1       -0.3532
     23 C         140.3502  142.1098  166.9079 C.3     1  UNL1        0.1501
     24 H         140.5465  141.6885  161.2922 H       1  UNL1        0.1466
     25 H         141.2688  143.2331  161.2916 H       1  UNL1        0.1466
@<TRIPOS>BOND
     1     1     2    1
     2     2     3    2
     3     3     4    1
     4     4     5    1
     5     5     6    1
     6     4     7    1
     7     7     8   ar
     8     8     9   ar
     9     9    10    1
    10     9    11   ar
    11    11    12   ar
    12    12    13   ar
    13    13    14    1
    14    14    15    1
    15    15    16    1
    16    16    17    1
    17    17    18    1
    18    18    19    1
    19    15    20    1
    20    20    21    1
    21    21    22    1
    22    22    23    1
    23     6     2    1
    24    13     7   ar
    25    19    15    1
    26    23    20    1
    27    20     4    1
    28     1    24    1
    29     1    25    1
