@<TRIPOS>MOLECULE
*****
 22 25 0 0 0
SMALL
GASTEIGER

@<TRIPOS>ATOM
      1 C         140.3304  142.2458  167.7966 C.2     1  UNL1        0.0130
      2 C         140.5005  141.9343  166.3391 C.2     1  UNL1        0.0020
      3 C         141.4368  140.8440  165.9095 C.ar    1  UNL1        0.0338
      4 C         141.6070  140.5325  164.4521 C.ar    1  UNL1        0.0030
      5 C         142.5433  139.4422  164.0225 C.ar    1  UNL1        0.0002
      6 C         143.3094  138.6634  165.0503 C.ar    1  UNL1        0.0031
      7 C         143.1393  138.9748  166.5077 C.ar    1  UNL1        0.0369
      8 C         142.2030  140.0652  166.9373 C.ar    1  UNL1        0.1386
      9 O         142.0329  140.3766  168.3947 O.3     1  UNL1       -0.4785
     10 C         141.0965  141.4670  168.8244 C.3     1  UNL1        0.1542
     11 C         140.1603  142.5573  169.2540 C.3     1  UNL1        0.0614
     12 C         139.9901  142.8687  170.7113 C.3     1  UNL1        0.0725
     13 N         140.7563  142.0898  171.7391 N.3     1  UNL1       -0.2972
     14 C         141.6926  140.9995  171.3096 C.3     1  UNL1        0.0725
     15 C         141.8627  140.6881  169.8522 C.3     1  UNL1        0.0614
     16 H         140.0675  141.6601  172.3567 H       1  UNL1        0.1233
     17 C         139.7344  142.7132  165.3113 C.ar    1  UNL1       -0.0001
     18 C         140.2717  144.0193  164.8060 C.ar    1  UNL1       -0.0000
     19 C         139.5055  144.7981  163.7782 C.ar    1  UNL1       -0.0000
     20 C         138.2021  144.2709  163.2557 C.ar    1  UNL1       -0.0000
     21 C         137.6647  142.9648  163.7611 C.ar    1  UNL1       -0.0000
     22 C         138.4309  142.1859  164.7889 C.ar    1  UNL1       -0.0000
@<TRIPOS>BOND
     1     1     2    2
     2     2    17    1
     3    17    18   ar
     4    18    19   ar
     5    19    20   ar
     6    20    21   ar
     7    21    22   ar
     8     2     3    1
     9     3     4   ar
    10     4     5   ar
    11     5     6   ar
    12     6     7   ar
    13     7     8   ar
    14     8     9    1
    15     9    10    1
    16    10    11    1
    17    11    12    1
    18    12    13    1
    19    13    14    1
    20    14    15    1
    21    10     1    1
    22    22    17   ar
    23     8     3   ar
    24    15    10    1
    25    13    16    1
@<TRIPOS>MOLECULE
*****
 22 25 0 0 0
SMALL
GASTEIGER

@<TRIPOS>ATOM
      1 C         141.5616  142.4621  167.8081 C.2     1  UNL1        0.0130
      2 C         141.0379  142.2038  166.4263 C.2     1  UNL1        0.0020
      3 C         140.0438  141.1048  166.1943 C.ar    1  UNL1        0.0338
      4 C         139.5201  140.8466  164.8126 C.ar    1  UNL1        0.0030
      5 C         138.5260  139.7476  164.5806 C.ar    1  UNL1        0.0002
      6 C         138.0555  138.9068  165.7302 C.ar    1  UNL1        0.0031
      7 C         138.5791  139.1650  167.1119 C.ar    1  UNL1        0.0369
      8 C         139.5733  140.2641  167.3440 C.ar    1  UNL1        0.1386
      9 O         140.0969  140.5223  168.7257 O.3     1  UNL1       -0.4785
     10 C         141.0911  141.6213  168.9577 C.3     1  UNL1        0.1542
     11 C         142.0852  142.7203  169.1898 C.3     1  UNL1        0.0614
     12 C         142.6089  142.9785  170.5714 C.3     1  UNL1        0.0725
     13 N         142.1384  142.1377  171.7211 N.3     1  UNL1       -0.2972
     14 C         141.1442  141.0387  171.4891 C.3     1  UNL1        0.0725
     15 C         140.6206  140.7805  170.1074 C.3     1  UNL1        0.0614
     16 H         141.7205  142.7742  172.3998 H       1  UNL1        0.1233
     17 C         141.5084  143.0446  165.2767 C.ar    1  UNL1       -0.0001
     18 C         140.6197  144.1161  164.7180 C.ar    1  UNL1       -0.0000
     19 C         141.0902  144.9569  163.5684 C.ar    1  UNL1       -0.0000
     20 C         142.4494  144.7262  162.9774 C.ar    1  UNL1       -0.0000
     21 C         143.3381  143.6547  163.5360 C.ar    1  UNL1       -0.0000
     22 C         142.8677  142.8139  164.6857 C.ar    1  UNL1       -0.0000
@<TRIPOS>BOND
     1     1     2    2
     2     2    17    1
     3    17    18   ar
     4    18    19   ar
     5    19    20   ar
     6    20    21   ar
     7    21    22   ar
     8     2     3    1
     9     3     4   ar
    10     4     5   ar
    11     5     6   ar
    12     6     7   ar
    13     7     8   ar
    14     8     9    1
    15     9    10    1
    16    10    11    1
    17    11    12    1
    18    12    13    1
    19    13    14    1
    20    14    15    1
    21    10     1    1
    22    22    17   ar
    23     8     3   ar
    24    15    10    1
    25    13    16    1
@<TRIPOS>MOLECULE
*****
 22 25 0 0 0
SMALL
GASTEIGER

@<TRIPOS>ATOM
      1 C         142.4371  141.2684  167.8249 C.2     1  UNL1        0.0130
      2 C         142.0891  140.6147  166.5204 C.2     1  UNL1        0.0020
      3 C         140.7680  139.9235  166.3567 C.ar    1  UNL1        0.0338
      4 C         140.4200  139.2698  165.0522 C.ar    1  UNL1        0.0030
      5 C         139.0989  138.5786  164.8886 C.ar    1  UNL1        0.0002
      6 C         138.1257  138.5411  166.0294 C.ar    1  UNL1        0.0031
      7 C         138.4736  139.1948  167.3338 C.ar    1  UNL1        0.0369
      8 C         139.7948  139.8860  167.4975 C.ar    1  UNL1        0.1386
      9 O         140.1427  140.5397  168.8020 O.3     1  UNL1       -0.4785
     10 C         141.4639  141.2309  168.9657 C.3     1  UNL1        0.1542
     11 C         142.7850  141.9221  169.1293 C.3     1  UNL1        0.0614
     12 C         143.1329  142.5758  170.4338 C.3     1  UNL1        0.0725
     13 N         142.1597  142.5383  171.5746 N.3     1  UNL1       -0.2972
     14 C         140.8386  141.8471  171.4109 C.3     1  UNL1        0.0725
     15 C         140.4906  141.1934  170.1065 C.3     1  UNL1        0.0614
     16 H         141.9566  143.5071  171.8204 H       1  UNL1        0.1233
     17 C         143.0623  140.6523  165.3796 C.ar    1  UNL1       -0.0001
     18 C         143.9788  139.4899  165.1370 C.ar    1  UNL1       -0.0000
     19 C         144.9521  139.5274  163.9962 C.ar    1  UNL1       -0.0000
     20 C         145.0088  140.7273  163.0980 C.ar    1  UNL1       -0.0000
     21 C         144.0923  141.8898  163.3404 C.ar    1  UNL1       -0.0000
     22 C         143.1190  141.8522  164.4812 C.ar    1  UNL1       -0.0000
@<TRIPOS>BOND
     1     1     2    2
     2     2    17    1
     3    17    18   ar
     4    18    19   ar
     5    19    20   ar
     6    20    21   ar
     7    21    22   ar
     8     2     3    1
     9     3     4   ar
    10     4     5   ar
    11     5     6   ar
    12     6     7   ar
    13     7     8   ar
    14     8     9    1
    15     9    10    1
    16    10    11    1
    17    11    12    1
    18    12    13    1
    19    13    14    1
    20    14    15    1
    21    10     1    1
    22    22    17   ar
    23     8     3   ar
    24    15    10    1
    25    13    16    1
@<TRIPOS>MOLECULE
*****
 22 25 0 0 0
SMALL
GASTEIGER

@<TRIPOS>ATOM
      1 C         141.6989  143.1798  165.1910 C.2     1  UNL1        0.0130
      2 C         141.1727  142.2961  166.2829 C.2     1  UNL1        0.0020
      3 C         140.1845  141.2145  165.9616 C.ar    1  UNL1        0.0338
      4 C         139.6583  140.3308  167.0536 C.ar    1  UNL1        0.0030
      5 C         138.6700  139.2491  166.7323 C.ar    1  UNL1        0.0002
      6 C         138.2078  139.0511  165.3190 C.ar    1  UNL1        0.0031
      7 C         138.7340  139.9347  164.2271 C.ar    1  UNL1        0.0369
      8 C         139.7223  141.0164  164.5484 C.ar    1  UNL1        0.1386
      9 O         140.2484  141.9001  163.4565 O.3     1  UNL1       -0.4785
     10 C         141.2368  142.9818  163.7777 C.3     1  UNL1        0.1542
     11 C         142.2250  144.0635  164.0991 C.3     1  UNL1        0.0614
     12 C         142.7511  144.9471  163.0071 C.3     1  UNL1        0.0725
     13 N         142.2890  144.7491  161.5939 N.3     1  UNL1       -0.2972
     14 C         141.3007  143.6674  161.2726 C.3     1  UNL1        0.0725
     15 C         140.7746  142.7838  162.3645 C.3     1  UNL1        0.0614
     16 H         143.1217  144.5625  161.0352 H       1  UNL1        0.1233
     17 C         141.6349  142.4941  167.6961 C.ar    1  UNL1       -0.0001
     18 C         143.0252  142.0954  168.0934 C.ar    1  UNL1       -0.0000
     19 C         143.4874  142.2934  169.5066 C.ar    1  UNL1       -0.0000
     20 C         142.5592  142.8902  170.5226 C.ar    1  UNL1       -0.0000
     21 C         141.1687  143.2890  170.1254 C.ar    1  UNL1       -0.0000
     22 C         140.7066  143.0909  168.7121 C.ar    1  UNL1       -0.0000
@<TRIPOS>BOND
     1     1     2    2
     2     2    17    1
     3    17    18   ar
     4    18    19   ar
     5    19    20   ar
     6    20    21   ar
     7    21    22   ar
     8     2     3    1
     9     3     4   ar
    10     4     5   ar
    11     5     6   ar
    12     6     7   ar
    13     7     8   ar
    14     8     9    1
    15     9    10    1
    16    10    11    1
    17    11    12    1
    18    12    13    1
    19    13    14    1
    20    14    15    1
    21    10     1    1
    22    22    17   ar
    23     8     3   ar
    24    15    10    1
    25    13    16    1
@<TRIPOS>MOLECULE
*****
 22 25 0 0 0
SMALL
GASTEIGER

@<TRIPOS>ATOM
      1 C         140.9993  140.0930  165.5370 C.2     1  UNL1        0.0130
      2 C         140.6914  141.4655  166.0583 C.2     1  UNL1        0.0020
      3 C         139.7824  142.3747  165.2858 C.ar    1  UNL1        0.0338
      4 C         139.4745  143.7472  165.8071 C.ar    1  UNL1        0.0030
      5 C         138.5655  144.6565  165.0346 C.ar    1  UNL1        0.0002
      6 C         137.9643  144.1933  163.7407 C.ar    1  UNL1        0.0031
      7 C         138.2721  142.8210  163.2194 C.ar    1  UNL1        0.0369
      8 C         139.1812  141.9116  163.9919 C.ar    1  UNL1        0.1386
      9 O         139.4890  140.5393  163.4706 O.3     1  UNL1       -0.4785
     10 C         140.3980  139.6299  164.2432 C.3     1  UNL1        0.1542
     11 C         141.3071  138.7207  165.0157 C.3     1  UNL1        0.0614
     12 C         141.6149  137.3483  164.4944 C.3     1  UNL1        0.0725
     13 N         141.0136  136.8852  163.2005 N.3     1  UNL1       -0.2972
     14 C         140.1046  137.7945  162.4280 C.3     1  UNL1        0.0725
     15 C         139.7968  139.1668  162.9493 C.3     1  UNL1        0.0614
     16 H         140.4787  136.0422  163.4095 H       1  UNL1        0.1233
     17 C         141.2927  141.9286  167.3522 C.ar    1  UNL1       -0.0001
     18 C         142.7831  142.0089  167.5003 C.ar    1  UNL1       -0.0000
     19 C         143.3844  142.4720  168.7942 C.ar    1  UNL1       -0.0000
     20 C         142.4951  142.8548  169.9399 C.ar    1  UNL1       -0.0000
     21 C         141.0046  142.7745  169.7918 C.ar    1  UNL1       -0.0000
     22 C         140.4033  142.3114  168.4979 C.ar    1  UNL1       -0.0000
@<TRIPOS>BOND
     1     1     2    2
     2     2    17    1
     3    17    18   ar
     4    18    19   ar
     5    19    20   ar
     6    20    21   ar
     7    21    22   ar
     8     2     3    1
     9     3     4   ar
    10     4     5   ar
    11     5     6   ar
    12     6     7   ar
    13     7     8   ar
    14     8     9    1
    15     9    10    1
    16    10    11    1
    17    11    12    1
    18    12    13    1
    19    13    14    1
    20    14    15    1
    21    10     1    1
    22    22    17   ar
    23     8     3   ar
    24    15    10    1
    25    13    16    1
@<TRIPOS>MOLECULE
*****
 22 25 0 0 0
SMALL
GASTEIGER

@<TRIPOS>ATOM
      1 C         142.8742  141.1599  165.6435 C.2     1  UNL1        0.0130
      2 C         141.7328  141.0267  166.6077 C.2     1  UNL1        0.0020
      3 C         140.6230  140.0574  166.3269 C.ar    1  UNL1        0.0338
      4 C         139.4817  139.9242  167.2911 C.ar    1  UNL1        0.0030
      5 C         138.3719  138.9549  167.0103 C.ar    1  UNL1        0.0002
      6 C         138.4034  138.1189  165.7653 C.ar    1  UNL1        0.0031
      7 C         139.5447  138.2521  164.8011 C.ar    1  UNL1        0.0369
      8 C         140.6545  139.2214  165.0819 C.ar    1  UNL1        0.1386
      9 O         141.7958  139.3546  164.1177 O.3     1  UNL1       -0.4785
     10 C         142.9057  140.3239  164.3985 C.3     1  UNL1        0.1542
     11 C         144.0155  141.2931  164.6793 C.3     1  UNL1        0.0614
     12 C         145.1567  141.4263  163.7151 C.3     1  UNL1        0.0725
     13 N         145.1882  140.5902  162.4701 N.3     1  UNL1       -0.2972
     14 C         144.0784  139.6210  162.1893 C.3     1  UNL1        0.0725
     15 C         142.9372  139.4878  163.1535 C.3     1  UNL1        0.0614
     16 H         146.0517  140.0482  162.5012 H       1  UNL1        0.1233
     17 C         141.7013  141.8627  167.8527 C.ar    1  UNL1       -0.0001
     18 C         140.5277  142.7556  168.1271 C.ar    1  UNL1       -0.0000
     19 C         140.4962  143.5916  169.3721 C.ar    1  UNL1       -0.0000
     20 C         141.6384  143.5348  170.3427 C.ar    1  UNL1       -0.0000
     21 C         142.8121  142.6419  170.0684 C.ar    1  UNL1       -0.0000
     22 C         142.8436  141.8059  168.8234 C.ar    1  UNL1       -0.0000
@<TRIPOS>BOND
     1     1     2    2
     2     2    17    1
     3    17    18   ar
     4    18    19   ar
     5    19    20   ar
     6    20    21   ar
     7    21    22   ar
     8     2     3    1
     9     3     4   ar
    10     4     5   ar
    11     5     6   ar
    12     6     7   ar
    13     7     8   ar
    14     8     9    1
    15     9    10    1
    16    10    11    1
    17    11    12    1
    18    12    13    1
    19    13    14    1
    20    14    15    1
    21    10     1    1
    22    22    17   ar
    23     8     3   ar
    24    15    10    1
    25    13    16    1
@<TRIPOS>MOLECULE
*****
 22 25 0 0 0
SMALL
GASTEIGER

@<TRIPOS>ATOM
      1 C         141.8024  140.1436  165.2762 C.2     1  UNL1        0.0130
      2 C         142.2095  141.5430  165.6311 C.2     1  UNL1        0.0020
      3 C         142.8320  142.4291  164.5932 C.ar    1  UNL1        0.0338
      4 C         143.2392  143.8285  164.9482 C.ar    1  UNL1        0.0030
      5 C         143.8616  144.7146  163.9102 C.ar    1  UNL1        0.0002
      6 C         144.0769  144.2014  162.5173 C.ar    1  UNL1        0.0031
      7 C         143.6698  142.8021  162.1623 C.ar    1  UNL1        0.0369
      8 C         143.0473  141.9159  163.2003 C.ar    1  UNL1        0.1386
      9 O         142.6401  140.5166  162.8453 O.3     1  UNL1       -0.4785
     10 C         142.0177  139.6304  163.8832 C.3     1  UNL1        0.1542
     11 C         141.3952  138.7443  164.9212 C.3     1  UNL1        0.0614
     12 C         140.9881  137.3450  164.5662 C.3     1  UNL1        0.0725
     13 N         141.2034  136.8317  163.1733 N.3     1  UNL1       -0.2972
     14 C         141.8258  137.7178  162.1353 C.3     1  UNL1        0.0725
     15 C         142.2330  139.1172  162.4903 C.3     1  UNL1        0.0614
     16 H         140.2883  136.5574  162.8158 H       1  UNL1        0.1233
     17 C         141.9942  142.0563  167.0240 C.ar    1  UNL1       -0.0001
     18 C         143.1132  142.0097  168.0218 C.ar    1  UNL1       -0.0000
     19 C         142.8979  142.5229  169.4148 C.ar    1  UNL1       -0.0000
     20 C         141.5636  143.0827  169.8099 C.ar    1  UNL1       -0.0000
     21 C         140.4446  143.1294  168.8121 C.ar    1  UNL1       -0.0000
     22 C         140.6599  142.6162  167.4192 C.ar    1  UNL1       -0.0000
@<TRIPOS>BOND
     1     1     2    2
     2     2    17    1
     3    17    18   ar
     4    18    19   ar
     5    19    20   ar
     6    20    21   ar
     7    21    22   ar
     8     2     3    1
     9     3     4   ar
    10     4     5   ar
    11     5     6   ar
    12     6     7   ar
    13     7     8   ar
    14     8     9    1
    15     9    10    1
    16    10    11    1
    17    11    12    1
    18    12    13    1
    19    13    14    1
    20    14    15    1
    21    10     1    1
    22    22    17   ar
    23     8     3   ar
    24    15    10    1
    25    13    16    1
@<TRIPOS>MOLECULE
*****
 22 25 0 0 0
SMALL
GASTEIGER

@<TRIPOS>ATOM
      1 C         139.4478  142.3635  165.3125 C.2     1  UNL1        0.0130
      2 C         140.3449  141.5943  166.2365 C.2     1  UNL1        0.0020
      3 C         141.3691  140.6527  165.6760 C.ar    1  UNL1        0.0338
      4 C         142.2661  139.8835  166.6000 C.ar    1  UNL1        0.0030
      5 C         143.2903  138.9419  166.0395 C.ar    1  UNL1        0.0002
      6 C         143.4175  138.7693  164.5549 C.ar    1  UNL1        0.0031
      7 C         142.5205  139.5383  163.6308 C.ar    1  UNL1        0.0369
      8 C         141.4963  140.4801  164.1914 C.ar    1  UNL1        0.1386
      9 O         140.5993  141.2492  163.2673 O.3     1  UNL1       -0.4785
     10 C         139.5750  142.1909  163.8279 C.3     1  UNL1        0.1542
     11 C         138.5508  143.1326  164.3884 C.3     1  UNL1        0.0614
     12 C         137.6539  143.9016  163.4644 C.3     1  UNL1        0.0725
     13 N         137.7810  143.7290  161.9798 N.3     1  UNL1       -0.2972
     14 C         138.8052  142.7874  161.4192 C.3     1  UNL1        0.0725
     15 C         139.7022  142.0183  162.3433 C.3     1  UNL1        0.0614
     16 H         137.9851  144.6504  161.5927 H       1  UNL1        0.1233
     17 C         140.2177  141.7669  167.7211 C.ar    1  UNL1       -0.0001
     18 C         140.6663  143.0433  168.3689 C.ar    1  UNL1       -0.0000
     19 C         140.5391  143.2159  169.8535 C.ar    1  UNL1       -0.0000
     20 C         139.9633  142.1121  170.6903 C.ar    1  UNL1       -0.0000
     21 C         139.5147  140.8357  170.0425 C.ar    1  UNL1       -0.0000
     22 C         139.6419  140.6631  168.5579 C.ar    1  UNL1       -0.0000
@<TRIPOS>BOND
     1     1     2    2
     2     2    17    1
     3    17    18   ar
     4    18    19   ar
     5    19    20   ar
     6    20    21   ar
     7    21    22   ar
     8     2     3    1
     9     3     4   ar
    10     4     5   ar
    11     5     6   ar
    12     6     7   ar
    13     7     8   ar
    14     8     9    1
    15     9    10    1
    16    10    11    1
    17    11    12    1
    18    12    13    1
    19    13    14    1
    20    14    15    1
    21    10     1    1
    22    22    17   ar
    23     8     3   ar
    24    15    10    1
    25    13    16    1
@<TRIPOS>MOLECULE
*****
 22 25 0 0 0
SMALL
GASTEIGER

@<TRIPOS>ATOM
      1 C         140.9820  140.1275  167.7575 C.2     1  UNL1        0.0130
      2 C         141.3798  140.2112  166.3136 C.2     1  UNL1        0.0020
      3 C         142.4073  141.2123  165.8756 C.ar    1  UNL1        0.0338
      4 C         142.8052  141.2960  164.4317 C.ar    1  UNL1        0.0030
      5 C         143.8327  142.2972  163.9937 C.ar    1  UNL1        0.0002
      6 C         144.4624  143.2146  164.9995 C.ar    1  UNL1        0.0031
      7 C         144.0647  143.1310  166.4433 C.ar    1  UNL1        0.0369
      8 C         143.0371  142.1298  166.8814 C.ar    1  UNL1        0.1386
      9 O         142.6393  142.0461  168.3253 O.3     1  UNL1       -0.4785
     10 C         141.6118  141.0450  168.7634 C.3     1  UNL1        0.1542
     11 C         140.5842  140.0438  169.2014 C.3     1  UNL1        0.0614
     12 C         140.1865  139.9602  170.6452 C.3     1  UNL1        0.0725
     13 N         140.8162  140.8776  171.6510 N.3     1  UNL1       -0.2972
     14 C         141.8437  141.8788  171.2130 C.3     1  UNL1        0.0725
     15 C         142.2415  141.9624  169.7692 C.3     1  UNL1        0.0614
     16 H         141.2622  140.2852  172.3514 H       1  UNL1        0.1233
     17 C         140.7501  139.2938  165.3078 C.ar    1  UNL1       -0.0001
     18 C         141.4480  138.0280  164.9069 C.ar    1  UNL1       -0.0000
     19 C         140.8182  137.1105  163.9011 C.ar    1  UNL1       -0.0000
     20 C         139.4906  137.4588  163.2962 C.ar    1  UNL1       -0.0000
     21 C         138.7926  138.7247  163.6970 C.ar    1  UNL1       -0.0000
     22 C         139.4224  139.6421  164.7028 C.ar    1  UNL1       -0.0000
@<TRIPOS>BOND
     1     1     2    2
     2     2    17    1
     3    17    18   ar
     4    18    19   ar
     5    19    20   ar
     6    20    21   ar
     7    21    22   ar
     8     2     3    1
     9     3     4   ar
    10     4     5   ar
    11     5     6   ar
    12     6     7   ar
    13     7     8   ar
    14     8     9    1
    15     9    10    1
    16    10    11    1
    17    11    12    1
    18    12    13    1
    19    13    14    1
    20    14    15    1
    21    10     1    1
    22    22    17   ar
    23     8     3   ar
    24    15    10    1
    25    13    16    1
