@<TRIPOS>MOLECULE
*****
 29 33 0 0 0
SMALL
GASTEIGER

@<TRIPOS>ATOM
      1 N         138.9255  139.4027  165.9631 N.ar    1  UNL1       -0.3071
      2 C         139.2025  138.0341  165.4151 C.ar    1  UNL1        0.0775
      3 C         138.8615  138.0420  163.9544 C.ar    1  UNL1        0.0264
      4 C         138.3739  139.4156  163.5997 C.ar    1  UNL1        0.0888
      5 C         137.8989  140.0091  162.3066 C.ar    1  UNL1        0.2290
      6 N         137.4635  141.4436  162.2550 N.ar    1  UNL1       -0.1892
      7 C         137.5031  142.2845  163.4965 C.ar    1  UNL1        0.2029
      8 N         137.9780  141.6909  164.7896 N.ar    1  UNL1       -0.2063
      9 C         138.4134  140.2564  164.8412 C.ar    1  UNL1        0.1504
     10 C         139.1256  139.8406  167.3838 C.3     1  UNL1        0.1342
     11 C         143.0474  141.6475  168.6503 C.ar    1  UNL1       -0.0000
     12 C         142.2266  142.3092  167.5833 C.ar    1  UNL1       -0.0003
     13 C         140.9193  141.7069  167.1611 C.ar    1  UNL1       -0.0024
     14 C         140.4328  140.4429  167.8059 C.ar    1  UNL1        0.0004
     15 C         141.2537  139.7813  168.8729 C.ar    1  UNL1       -0.0024
     16 C         142.5610  140.3836  169.2951 C.ar    1  UNL1       -0.0003
     17 O         137.8594  139.1682  161.0651 O.3     1  UNL1       -0.4638
     18 C         139.0600  139.0972  160.1688 C.3     1  UNL1        0.1703
     19 C         138.9680  139.5811  158.7520 C.3     1  UNL1        0.0609
     20 C         140.1687  139.5101  157.8557 C.3     1  UNL1        0.0761
     21 N         141.4614  138.9551  158.3762 N.3     1  UNL1       -0.2674
     22 C         141.5534  138.4712  159.7930 C.3     1  UNL1        0.0761
     23 C         140.3528  138.5422  160.6893 C.3     1  UNL1        0.0609
     24 C         142.6620  138.8841  157.4799 C.3     1  UNL1        0.1192
     25 C         142.9982  137.6027  156.7765 C.ar    1  UNL1        0.0823
     26 C         142.2062  136.3301  156.8363 C.ar    1  UNL1        0.0530
     27 S         142.9039  135.3097  155.9866 S.2     1  UNL1       -0.0643
     28 C         144.1270  135.9516  155.4017 C.ar    1  UNL1        0.1341
     29 N         144.1852  137.3687  155.8899 N.ar    1  UNL1       -0.2392
@<TRIPOS>BOND
     1    11    12   ar
     2    12    13   ar
     3    13    14   ar
     4    14    10    1
     5    10     1    1
     6     1     2   ar
     7     2     3   ar
     8     3     4   ar
     9     4     5   ar
    10     5    17    1
    11    17    18    1
    12    18    19    1
    13    19    20    1
    14    20    21    1
    15    21    24    1
    16    24    25    1
    17    25    26   ar
    18    26    27   ar
    19    27    28   ar
    20    28    29   ar
    21    21    22    1
    22    22    23    1
    23     5     6   ar
    24     6     7   ar
    25     7     8   ar
    26     8     9   ar
    27    14    15   ar
    28    15    16   ar
    29    16    11   ar
    30     9     1   ar
    31     9     4   ar
    32    23    18    1
    33    29    25   ar
@<TRIPOS>MOLECULE
*****
 29 33 0 0 0
SMALL
GASTEIGER

@<TRIPOS>ATOM
      1 N         142.9437  139.6687  166.8712 N.ar    1  UNL1       -0.3071
      2 C         143.5897  138.4642  166.2533 C.ar    1  UNL1        0.0775
      3 C         144.1605  138.8730  164.9278 C.ar    1  UNL1        0.0264
      4 C         143.8673  140.3303  164.7265 C.ar    1  UNL1        0.0888
      5 C         144.1880  141.2730  163.6047 C.ar    1  UNL1        0.2290
      6 N         143.7566  142.7074  163.6839 N.ar    1  UNL1       -0.1892
      7 C         143.0046  143.1992  164.8850 C.ar    1  UNL1        0.2029
      8 N         142.6839  142.2565  166.0068 N.ar    1  UNL1       -0.2063
      9 C         143.1153  140.8220  165.9276 C.ar    1  UNL1        0.1504
     10 C         142.2482  139.7123  168.1995 C.3     1  UNL1        0.1342
     11 C         141.3234  143.6724  170.1262 C.ar    1  UNL1       -0.0000
     12 C         140.2623  142.9498  169.3504 C.ar    1  UNL1       -0.0003
     13 C         140.5706  141.6298  168.7082 C.ar    1  UNL1       -0.0024
     14 C         141.9400  141.0323  168.8417 C.ar    1  UNL1        0.0004
     15 C         143.0011  141.7549  169.6175 C.ar    1  UNL1       -0.0024
     16 C         142.6928  143.0750  170.2598 C.ar    1  UNL1       -0.0003
     17 O         144.9400  140.7812  162.4035 O.3     1  UNL1       -0.4638
     18 C         144.2120  140.0672  161.3035 C.3     1  UNL1        0.1703
     19 C         143.6838  140.8379  160.1301 C.3     1  UNL1        0.0609
     20 C         142.9558  140.1239  159.0300 C.3     1  UNL1        0.0761
     21 N         142.7560  138.6391  159.1033 N.3     1  UNL1       -0.2674
     22 C         143.2843  137.8683  160.2768 C.3     1  UNL1        0.0761
     23 C         144.0123  138.5823  161.3768 C.3     1  UNL1        0.0609
     24 C         142.0281  137.9250  158.0033 C.3     1  UNL1        0.1192
     25 C         142.7897  137.0829  157.0231 C.ar    1  UNL1        0.0823
     26 C         142.5910  135.6163  156.7794 C.ar    1  UNL1        0.0530
     27 S         143.5623  135.1865  155.7203 S.2     1  UNL1       -0.0643
     28 C         144.3614  136.3877  155.3094 C.ar    1  UNL1        0.1341
     29 N         143.8839  137.5597  156.1146 N.ar    1  UNL1       -0.2392
@<TRIPOS>BOND
     1    11    12   ar
     2    12    13   ar
     3    13    14   ar
     4    14    10    1
     5    10     1    1
     6     1     2   ar
     7     2     3   ar
     8     3     4   ar
     9     4     5   ar
    10     5    17    1
    11    17    18    1
    12    18    19    1
    13    19    20    1
    14    20    21    1
    15    21    24    1
    16    24    25    1
    17    25    26   ar
    18    26    27   ar
    19    27    28   ar
    20    28    29   ar
    21    21    22    1
    22    22    23    1
    23     5     6   ar
    24     6     7   ar
    25     7     8   ar
    26     8     9   ar
    27    14    15   ar
    28    15    16   ar
    29    16    11   ar
    30     9     1   ar
    31     9     4   ar
    32    23    18    1
    33    29    25   ar
@<TRIPOS>MOLECULE
*****
 29 33 0 0 0
SMALL
GASTEIGER

@<TRIPOS>ATOM
      1 N         141.1229  139.3690  165.8066 N.ar    1  UNL1       -0.3071
      2 C         139.6343  139.2064  165.7186 C.ar    1  UNL1        0.0775
      3 C         139.3058  138.6761  164.3545 C.ar    1  UNL1        0.0264
      4 C         140.5914  138.5110  163.5994 C.ar    1  UNL1        0.0888
      5 C         140.8844  138.0260  162.2105 C.ar    1  UNL1        0.2290
      6 N         142.3005  137.9693  161.7191 N.ar    1  UNL1       -0.1892
      7 C         143.4235  138.3975  162.6165 C.ar    1  UNL1        0.2029
      8 N         143.1304  138.8825  164.0054 N.ar    1  UNL1       -0.2063
      9 C         141.7144  138.9392  164.4968 C.ar    1  UNL1        0.1504
     10 C         141.8861  139.8729  166.9956 C.3     1  UNL1        0.1342
     11 C         139.8072  142.3665  170.1117 C.ar    1  UNL1       -0.0000
     12 C         140.5623  143.0322  168.9996 C.ar    1  UNL1       -0.0003
     13 C         141.2552  142.2010  167.9609 C.ar    1  UNL1       -0.0024
     14 C         141.1931  140.7041  168.0343 C.ar    1  UNL1        0.0004
     15 C         140.4381  140.0384  169.1463 C.ar    1  UNL1       -0.0024
     16 C         139.7451  140.8696  170.1850 C.ar    1  UNL1       -0.0003
     17 O         139.7613  137.5978  161.3131 O.3     1  UNL1       -0.4638
     18 C         139.2448  138.5327  160.2599 C.3     1  UNL1        0.1703
     19 C         138.2128  139.5626  160.6121 C.3     1  UNL1        0.0609
     20 C         137.6962  140.4975  159.5590 C.3     1  UNL1        0.0761
     21 N         138.2116  140.4024  158.1536 N.3     1  UNL1       -0.2674
     22 C         139.2437  139.3724  157.8013 C.3     1  UNL1        0.0761
     23 C         139.7603  138.4376  158.8544 C.3     1  UNL1        0.0609
     24 C         137.6950  141.3373  157.1004 C.3     1  UNL1        0.1192
     25 C         136.3798  141.0627  156.4335 C.ar    1  UNL1        0.0823
     26 C         135.9025  141.6632  155.1445 C.ar    1  UNL1        0.0530
     27 S         134.5387  141.1110  154.8529 S.2     1  UNL1       -0.0643
     28 C         134.1731  140.1692  155.9618 C.ar    1  UNL1        0.1341
     29 N         135.3110  140.1394  156.9386 N.ar    1  UNL1       -0.2392
@<TRIPOS>BOND
     1    11    12   ar
     2    12    13   ar
     3    13    14   ar
     4    14    10    1
     5    10     1    1
     6     1     2   ar
     7     2     3   ar
     8     3     4   ar
     9     4     5   ar
    10     5    17    1
    11    17    18    1
    12    18    19    1
    13    19    20    1
    14    20    21    1
    15    21    24    1
    16    24    25    1
    17    25    26   ar
    18    26    27   ar
    19    27    28   ar
    20    28    29   ar
    21    21    22    1
    22    22    23    1
    23     5     6   ar
    24     6     7   ar
    25     7     8   ar
    26     8     9   ar
    27    14    15   ar
    28    15    16   ar
    29    16    11   ar
    30     9     1   ar
    31     9     4   ar
    32    23    18    1
    33    29    25   ar
@<TRIPOS>MOLECULE
*****
 29 33 0 0 0
SMALL
GASTEIGER

@<TRIPOS>ATOM
      1 N         140.6780  139.5646  166.2780 N.ar    1  UNL1       -0.3071
      2 C         142.1383  139.9072  166.2991 C.ar    1  UNL1        0.0775
      3 C         142.7480  139.4168  165.0195 C.ar    1  UNL1        0.0264
      4 C         141.6646  138.7711  164.2074 C.ar    1  UNL1        0.0888
      5 C         141.6777  138.1117  162.8602 C.ar    1  UNL1        0.2290
      6 N         140.4116  137.5437  162.2907 N.ar    1  UNL1       -0.1892
      7 C         139.1323  137.6351  163.0686 C.ar    1  UNL1        0.2029
      8 N         139.1192  138.2945  164.4158 N.ar    1  UNL1       -0.2063
      9 C         140.3853  138.8625  164.9852 C.ar    1  UNL1        0.1504
     10 C         139.6849  139.8705  167.3597 C.3     1  UNL1        0.1342
     11 C         140.9300  142.3028  170.9352 C.ar    1  UNL1       -0.0000
     12 C         140.6455  142.9819  169.6283 C.ar    1  UNL1       -0.0003
     13 C         140.2305  142.1711  168.4365 C.ar    1  UNL1       -0.0024
     14 C         140.0999  140.6813  168.5515 C.ar    1  UNL1        0.0004
     15 C         140.3844  140.0022  169.8584 C.ar    1  UNL1       -0.0024
     16 C         140.7995  140.8129  171.0502 C.ar    1  UNL1       -0.0003
     17 O         142.9571  138.0203  162.0823 O.3     1  UNL1       -0.4638
     18 C         143.3333  139.1134  161.1264 C.3     1  UNL1        0.1703
     19 C         143.0715  138.9491  159.6587 C.3     1  UNL1        0.0609
     20 C         143.4478  140.0421  158.7028 C.3     1  UNL1        0.0761
     21 N         144.0858  141.2994  159.2147 N.3     1  UNL1       -0.2674
     22 C         144.3477  141.4637  160.6825 C.3     1  UNL1        0.0761
     23 C         143.9714  140.3707  161.6384 C.3     1  UNL1        0.0609
     24 C         144.4621  142.3925  158.2588 C.3     1  UNL1        0.1192
     25 C         145.5955  142.1907  157.2973 C.ar    1  UNL1        0.0823
     26 C         145.5674  141.3297  156.0693 C.ar    1  UNL1        0.0530
     27 S         146.9106  141.4214  155.4080 S.2     1  UNL1       -0.0643
     28 C         147.7689  142.3390  156.2273 C.ar    1  UNL1        0.1341
     29 N         146.9562  142.8145  157.3949 N.ar    1  UNL1       -0.2392
@<TRIPOS>BOND
     1    11    12   ar
     2    12    13   ar
     3    13    14   ar
     4    14    10    1
     5    10     1    1
     6     1     2   ar
     7     2     3   ar
     8     3     4   ar
     9     4     5   ar
    10     5    17    1
    11    17    18    1
    12    18    19    1
    13    19    20    1
    14    20    21    1
    15    21    24    1
    16    24    25    1
    17    25    26   ar
    18    26    27   ar
    19    27    28   ar
    20    28    29   ar
    21    21    22    1
    22    22    23    1
    23     5     6   ar
    24     6     7   ar
    25     7     8   ar
    26     8     9   ar
    27    14    15   ar
    28    15    16   ar
    29    16    11   ar
    30     9     1   ar
    31     9     4   ar
    32    23    18    1
    33    29    25   ar
@<TRIPOS>MOLECULE
*****
 29 33 0 0 0
SMALL
GASTEIGER

@<TRIPOS>ATOM
      1 N         139.6473  137.9014  162.8960 N.ar    1  UNL1       -0.3071
      2 C         141.0744  137.5098  162.6505 C.ar    1  UNL1        0.0775
      3 C         141.4552  137.9822  161.2787 C.ar    1  UNL1        0.0264
      4 C         140.2635  138.6657  160.6764 C.ar    1  UNL1        0.0888
      5 C         140.0515  139.3271  159.3469 C.ar    1  UNL1        0.2290
      6 N         138.7221  139.9386  159.0169 N.ar    1  UNL1       -0.1892
      7 C         137.6048  139.8886  160.0164 C.ar    1  UNL1        0.2029
      8 N         137.8169  139.2272  161.3459 N.ar    1  UNL1       -0.2063
      9 C         139.1462  138.6157  161.6759 C.ar    1  UNL1        0.1504
     10 C         138.8597  137.6268  164.1426 C.3     1  UNL1        0.1342
     11 C         139.5899  140.0712  167.8496 C.ar    1  UNL1       -0.0000
     12 C         138.3142  139.2962  167.7015 C.ar    1  UNL1       -0.0003
     13 C         138.0707  138.4814  166.4658 C.ar    1  UNL1       -0.0024
     14 C         139.1031  138.4416  165.3783 C.ar    1  UNL1        0.0004
     15 C         140.3788  139.2165  165.5264 C.ar    1  UNL1       -0.0024
     16 C         140.6222  140.0313  166.7621 C.ar    1  UNL1       -0.0003
     17 O         141.1689  139.3770  158.3473 O.3     1  UNL1       -0.4638
     18 C         141.4337  138.1978  157.4590 C.3     1  UNL1        0.1703
     19 C         140.3209  137.6074  156.6446 C.3     1  UNL1        0.0609
     20 C         140.5857  136.4282  155.7562 C.3     1  UNL1        0.0761
     21 N         141.9633  135.8392  155.6822 N.3     1  UNL1       -0.2674
     22 C         143.0761  136.4296  156.4966 C.3     1  UNL1        0.0761
     23 C         142.8113  137.6089  157.3850 C.3     1  UNL1        0.0609
     24 C         142.2281  134.6600  154.7938 C.3     1  UNL1        0.1192
     25 C         142.6435  133.3487  155.3919 C.ar    1  UNL1        0.0823
     26 C         143.2549  132.1961  154.6517 C.ar    1  UNL1        0.0530
     27 S         143.5097  131.0948  155.6376 S.2     1  UNL1       -0.0643
     28 C         143.0558  131.5667  156.9872 C.ar    1  UNL1        0.1341
     29 N         142.5205  132.9596  156.8354 N.ar    1  UNL1       -0.2392
@<TRIPOS>BOND
     1    11    12   ar
     2    12    13   ar
     3    13    14   ar
     4    14    10    1
     5    10     1    1
     6     1     2   ar
     7     2     3   ar
     8     3     4   ar
     9     4     5   ar
    10     5    17    1
    11    17    18    1
    12    18    19    1
    13    19    20    1
    14    20    21    1
    15    21    24    1
    16    24    25    1
    17    25    26   ar
    18    26    27   ar
    19    27    28   ar
    20    28    29   ar
    21    21    22    1
    22    22    23    1
    23     5     6   ar
    24     6     7   ar
    25     7     8   ar
    26     8     9   ar
    27    14    15   ar
    28    15    16   ar
    29    16    11   ar
    30     9     1   ar
    31     9     4   ar
    32    23    18    1
    33    29    25   ar
@<TRIPOS>MOLECULE
*****
 29 33 0 0 0
SMALL
GASTEIGER

@<TRIPOS>ATOM
      1 N         141.7517  141.5601  165.2320 N.ar    1  UNL1       -0.3071
      2 C         142.2995  140.2234  164.8279 C.ar    1  UNL1        0.0775
      3 C         143.1582  140.4221  163.6142 C.ar    1  UNL1        0.0264
      4 C         143.1410  141.8816  163.2681 C.ar    1  UNL1        0.0888
      5 C         143.8047  142.6610  162.1717 C.ar    1  UNL1        0.2290
      6 N         143.5991  144.1437  162.0751 N.ar    1  UNL1       -0.1892
      7 C         142.7298  144.8469  163.0750 C.ar    1  UNL1        0.2029
      8 N         142.0662  144.0676  164.1714 N.ar    1  UNL1       -0.2063
      9 C         142.2718  142.5849  164.2680 C.ar    1  UNL1        0.1504
     10 C         140.8433  141.8254  166.3957 C.3     1  UNL1        0.1342
     11 C         142.5655  143.1336  170.3420 C.ar    1  UNL1       -0.0000
     12 C         143.4168  142.3767  169.3661 C.ar    1  UNL1       -0.0003
     13 C         142.8427  141.9406  168.0507 C.ar    1  UNL1       -0.0024
     14 C         141.4173  142.2615  167.7112 C.ar    1  UNL1        0.0004
     15 C         140.5660  143.0184  168.6870 C.ar    1  UNL1       -0.0024
     16 C         141.1401  143.4544  170.0025 C.ar    1  UNL1       -0.0003
     17 O         144.6740  141.9576  161.1718 O.3     1  UNL1       -0.4638
     18 C         144.0507  141.2140  160.0279 C.3     1  UNL1        0.1703
     19 C         143.7992  141.9149  158.7259 C.3     1  UNL1        0.0609
     20 C         143.1759  141.1713  157.5819 C.3     1  UNL1        0.0761
     21 N         142.8041  139.7268  157.7401 N.3     1  UNL1       -0.2674
     22 C         143.0557  139.0258  159.0422 C.3     1  UNL1        0.0761
     23 C         143.6789  139.7694  160.1861 C.3     1  UNL1        0.0609
     24 C         142.1808  138.9831  156.5962 C.3     1  UNL1        0.1192
     25 C         142.6001  137.5736  156.3006 C.ar    1  UNL1        0.0823
     26 C         141.7006  136.3735  156.2735 C.ar    1  UNL1        0.0530
     27 S         142.5370  135.1748  155.9364 S.2     1  UNL1       -0.0643
     28 C         143.9534  135.6341  155.7551 C.ar    1  UNL1        0.1341
     29 N         143.9924  137.1166  155.9802 N.ar    1  UNL1       -0.2392
@<TRIPOS>BOND
     1    11    12   ar
     2    12    13   ar
     3    13    14   ar
     4    14    10    1
     5    10     1    1
     6     1     2   ar
     7     2     3   ar
     8     3     4   ar
     9     4     5   ar
    10     5    17    1
    11    17    18    1
    12    18    19    1
    13    19    20    1
    14    20    21    1
    15    21    24    1
    16    24    25    1
    17    25    26   ar
    18    26    27   ar
    19    27    28   ar
    20    28    29   ar
    21    21    22    1
    22    22    23    1
    23     5     6   ar
    24     6     7   ar
    25     7     8   ar
    26     8     9   ar
    27    14    15   ar
    28    15    16   ar
    29    16    11   ar
    30     9     1   ar
    31     9     4   ar
    32    23    18    1
    33    29    25   ar
@<TRIPOS>MOLECULE
*****
 29 33 0 0 0
SMALL
GASTEIGER

@<TRIPOS>ATOM
      1 N         142.1558  141.1871  166.1874 N.ar    1  UNL1       -0.3071
      2 C         143.2806  140.6036  165.3847 C.ar    1  UNL1        0.0775
      3 C         142.7323  139.4630  164.5795 C.ar    1  UNL1        0.0264
      4 C         141.2686  139.3416  164.8846 C.ar    1  UNL1        0.0888
      5 C         140.2143  138.3984  164.3858 C.ar    1  UNL1        0.2290
      6 N         138.8036  138.5208  164.8808 N.ar    1  UNL1       -0.1892
      7 C         138.4473  139.5864  165.8745 C.ar    1  UNL1        0.2029
      8 N         139.5017  140.5296  166.3733 N.ar    1  UNL1       -0.2063
      9 C         140.9123  140.4072  165.8783 C.ar    1  UNL1        0.1504
     10 C         142.2567  142.3470  167.1332 C.3     1  UNL1        0.1342
     11 C         140.7082  141.9607  171.3407 C.ar    1  UNL1       -0.0000
     12 C         140.0388  142.8963  170.3781 C.ar    1  UNL1       -0.0003
     13 C         140.5550  143.0250  168.9756 C.ar    1  UNL1       -0.0024
     14 C         141.7405  142.2182  168.5357 C.ar    1  UNL1        0.0004
     15 C         142.4099  141.2826  169.4983 C.ar    1  UNL1       -0.0024
     16 C         141.8937  141.1539  170.9008 C.ar    1  UNL1       -0.0003
     17 O         140.5706  137.3328  163.3920 O.3     1  UNL1       -0.4638
     18 C         140.8885  137.7055  161.9743 C.3     1  UNL1        0.1703
     19 C         139.8017  138.2026  161.0678 C.3     1  UNL1        0.0609
     20 C         140.1196  138.5753  159.6500 C.3     1  UNL1        0.0761
     21 N         141.5242  138.4510  159.1388 N.3     1  UNL1       -0.2674
     22 C         142.6111  137.9540  160.0453 C.3     1  UNL1        0.0761
     23 C         142.2932  137.5812  161.4630 C.3     1  UNL1        0.0609
     24 C         141.8421  138.8238  157.7210 C.3     1  UNL1        0.1192
     25 C         142.5128  137.8323  156.8172 C.ar    1  UNL1        0.0823
     26 C         141.8901  136.5881  156.2567 C.ar    1  UNL1        0.0530
     27 S         142.9165  135.8977  155.4083 S.2     1  UNL1       -0.0643
     28 C         144.1737  136.7152  155.4445 C.ar    1  UNL1        0.1341
     29 N         143.9242  137.9108  156.3152 N.ar    1  UNL1       -0.2392
@<TRIPOS>BOND
     1    11    12   ar
     2    12    13   ar
     3    13    14   ar
     4    14    10    1
     5    10     1    1
     6     1     2   ar
     7     2     3   ar
     8     3     4   ar
     9     4     5   ar
    10     5    17    1
    11    17    18    1
    12    18    19    1
    13    19    20    1
    14    20    21    1
    15    21    24    1
    16    24    25    1
    17    25    26   ar
    18    26    27   ar
    19    27    28   ar
    20    28    29   ar
    21    21    22    1
    22    22    23    1
    23     5     6   ar
    24     6     7   ar
    25     7     8   ar
    26     8     9   ar
    27    14    15   ar
    28    15    16   ar
    29    16    11   ar
    30     9     1   ar
    31     9     4   ar
    32    23    18    1
    33    29    25   ar
@<TRIPOS>MOLECULE
*****
 29 33 0 0 0
SMALL
GASTEIGER

@<TRIPOS>ATOM
      1 N         139.3835  139.4066  167.1008 N.ar    1  UNL1       -0.3071
      2 C         138.1133  138.9621  166.4382 C.ar    1  UNL1        0.0775
      3 C         138.4691  138.3565  165.1129 C.ar    1  UNL1        0.0264
      4 C         139.9594  138.4266  164.9564 C.ar    1  UNL1        0.0888
      5 C         140.8747  137.9833  163.8538 C.ar    1  UNL1        0.2290
      6 N         142.3552  138.1891  163.9799 N.ar    1  UNL1       -0.1892
      7 C         142.9202  138.8380  165.2084 C.ar    1  UNL1        0.2029
      8 N         142.0049  139.2813  166.3110 N.ar    1  UNL1       -0.2063
      9 C         140.5244  139.0756  166.1850 C.ar    1  UNL1        0.1504
     10 C         139.4935  140.0662  168.4435 C.3     1  UNL1        0.1342
     11 C         143.4525  141.6921  169.8340 C.ar    1  UNL1       -0.0000
     12 C         142.9973  140.3367  170.2874 C.ar    1  UNL1       -0.0003
     13 C         141.6777  139.7947  169.8239 C.ar    1  UNL1       -0.0024
     14 C         140.8132  140.6082  168.9070 C.ar    1  UNL1        0.0004
     15 C         141.2683  141.9636  168.4535 C.ar    1  UNL1       -0.0024
     16 C         142.5879  142.5056  168.9170 C.ar    1  UNL1       -0.0003
     17 O         140.3096  137.3343  162.6252 O.3     1  UNL1       -0.4638
     18 C         139.7178  138.1786  161.5358 C.3     1  UNL1        0.1703
     19 C         138.2781  138.5935  161.6068 C.3     1  UNL1        0.0609
     20 C         137.6862  139.4379  160.5173 C.3     1  UNL1        0.0761
     21 N         138.5341  139.8673  159.3569 N.3     1  UNL1       -0.2674
     22 C         139.9739  139.4524  159.2858 C.3     1  UNL1        0.0761
     23 C         140.5657  138.6080  160.3753 C.3     1  UNL1        0.0609
     24 C         137.9423  140.7116  158.2675 C.3     1  UNL1        0.1192
     25 C         138.3684  140.5061  156.8441 C.ar    1  UNL1        0.0823
     26 C         139.4010  141.3078  156.1083 C.ar    1  UNL1        0.0530
     27 S         139.5076  140.7600  154.7160 S.2     1  UNL1       -0.0643
     28 C         138.5409  139.6198  154.5913 C.ar    1  UNL1        0.1341
     29 N         137.8369  139.4629  155.9065 N.ar    1  UNL1       -0.2392
@<TRIPOS>BOND
     1    11    12   ar
     2    12    13   ar
     3    13    14   ar
     4    14    10    1
     5    10     1    1
     6     1     2   ar
     7     2     3   ar
     8     3     4   ar
     9     4     5   ar
    10     5    17    1
    11    17    18    1
    12    18    19    1
    13    19    20    1
    14    20    21    1
    15    21    24    1
    16    24    25    1
    17    25    26   ar
    18    26    27   ar
    19    27    28   ar
    20    28    29   ar
    21    21    22    1
    22    22    23    1
    23     5     6   ar
    24     6     7   ar
    25     7     8   ar
    26     8     9   ar
    27    14    15   ar
    28    15    16   ar
    29    16    11   ar
    30     9     1   ar
    31     9     4   ar
    32    23    18    1
    33    29    25   ar
@<TRIPOS>MOLECULE
*****
 29 33 0 0 0
SMALL
GASTEIGER

@<TRIPOS>ATOM
      1 N         140.4734  140.3040  165.9292 N.ar    1  UNL1       -0.3071
      2 C         140.2885  141.7924  165.9483 C.ar    1  UNL1        0.0775
      3 C         139.3975  142.1636  164.8002 C.ar    1  UNL1        0.0264
      4 C         139.0317  140.9045  164.0715 C.ar    1  UNL1        0.0888
      5 C         138.1790  140.6561  162.8627 C.ar    1  UNL1        0.2290
      6 N         137.9912  139.2585  162.3516 N.ar    1  UNL1       -0.1892
      7 C         138.6562  138.1092  163.0494 C.ar    1  UNL1        0.2029
      8 N         139.5089  138.3576  164.2582 N.ar    1  UNL1       -0.2063
      9 C         139.6966  139.7553  164.7692 C.ar    1  UNL1        0.1504
     10 C         141.2915  139.5046  166.8996 C.3     1  UNL1        0.1342
     11 C         141.8612  140.9800  171.1125 C.ar    1  UNL1       -0.0000
     12 C         140.5227  140.4651  170.6728 C.ar    1  UNL1       -0.0003
     13 C         140.3328  139.9733  169.2684 C.ar    1  UNL1       -0.0024
     14 C         141.4814  139.9964  168.3039 C.ar    1  UNL1        0.0004
     15 C         142.8198  140.5113  168.7437 C.ar    1  UNL1       -0.0024
     16 C         143.0097  141.0031  170.1480 C.ar    1  UNL1       -0.0003
     17 O         137.5140  141.8055  162.1649 O.3     1  UNL1       -0.4638
     18 C         138.3156  142.7068  161.2733 C.3     1  UNL1        0.1703
     19 C         138.9903  143.9191  161.8435 C.3     1  UNL1        0.0609
     20 C         139.7919  144.8204  160.9519 C.3     1  UNL1        0.0761
     21 N         139.9189  144.5094  159.4900 N.3     1  UNL1       -0.2674
     22 C         139.2443  143.2971  158.9197 C.3     1  UNL1        0.0761
     23 C         138.4426  142.3958  159.8113 C.3     1  UNL1        0.0609
     24 C         140.7206  145.4108  158.5984 C.3     1  UNL1        0.1192
     25 C         140.1443  145.8840  157.2969 C.ar    1  UNL1        0.0823
     26 C         140.2659  145.1878  155.9738 C.ar    1  UNL1        0.0530
     27 S         139.5420  146.0101  154.9492 S.2     1  UNL1       -0.0643
     28 C         138.9731  147.2144  155.6390 C.ar    1  UNL1        0.1341
     29 N         139.3453  147.1365  157.0900 N.ar    1  UNL1       -0.2392
@<TRIPOS>BOND
     1    11    12   ar
     2    12    13   ar
     3    13    14   ar
     4    14    10    1
     5    10     1    1
     6     1     2   ar
     7     2     3   ar
     8     3     4   ar
     9     4     5   ar
    10     5    17    1
    11    17    18    1
    12    18    19    1
    13    19    20    1
    14    20    21    1
    15    21    24    1
    16    24    25    1
    17    25    26   ar
    18    26    27   ar
    19    27    28   ar
    20    28    29   ar
    21    21    22    1
    22    22    23    1
    23     5     6   ar
    24     6     7   ar
    25     7     8   ar
    26     8     9   ar
    27    14    15   ar
    28    15    16   ar
    29    16    11   ar
    30     9     1   ar
    31     9     4   ar
    32    23    18    1
    33    29    25   ar
