@<TRIPOS>MOLECULE
*****
 21 23 0 0 0
SMALL
GASTEIGER

@<TRIPOS>ATOM
      1 C         140.5122  140.7181  168.7833 C.ar    1  UNL1        0.1378
      2 N         139.2751  139.8782  168.6651 N.ar    1  UNL1       -0.1770
      3 C         138.7906  139.4426  167.3139 C.ar    1  UNL1        0.3552
      4 O         137.5534  138.6027  167.1957 O.2     1  UNL1       -0.2440
      5 N         139.5432  139.8470  166.0811 N.ar    1  UNL1       -0.2573
      6 C         140.7804  140.6870  166.1993 C.ar    1  UNL1        0.0718
      7 C         141.5330  141.0914  164.9664 C.ar    1  UNL1        0.0291
      8 C         142.7701  141.9313  165.0847 C.ar    1  UNL1        0.0591
      9 CL        143.5228  142.3357  163.8518 Cl      1  UNL1       -0.0822
     10 C         143.2546  142.3669  166.4358 C.ar    1  UNL1        0.0116
     11 C         142.5020  141.9625  167.6687 C.ar    1  UNL1        0.0051
     12 C         141.2649  141.1226  167.5504 C.ar    1  UNL1        0.0480
     13 C         139.0587  139.4114  164.7299 C.ar    1  UNL1        0.0874
     14 C         139.4320  138.0590  164.1994 C.ar    1  UNL1        0.0208
     15 C         138.9475  137.6234  162.8483 C.ar    1  UNL1        0.0222
     16 C         138.0897  138.5403  162.0277 C.ar    1  UNL1        0.0990
     17 N         137.7163  139.8928  162.5582 N.ar    1  UNL1       -0.2408
     18 C         138.2008  140.3284  163.9093 C.ar    1  UNL1        0.1164
     19 C         140.3882  142.3531  170.7986 C.3     1  UNL1        0.1136
     20 N         140.9967  141.1537  170.1345 N.pl3   1  UNL1       -0.2896
     21 C         142.0897  140.3898  170.8214 C.3     1  UNL1        0.1136
@<TRIPOS>BOND
     1    19    20    1
     2    20    21    1
     3    20     1    1
     4     1     2   ar
     5     2     3   ar
     6     3     4    2
     7     3     5   ar
     8     5    13    1
     9    13    14   ar
    10    14    15   ar
    11    15    16   ar
    12    16    17   ar
    13    17    18   ar
    14     5     6   ar
    15     6     7   ar
    16     7     8   ar
    17     8     9    1
    18     8    10   ar
    19    10    11   ar
    20    11    12   ar
    21    12     1   ar
    22    18    13   ar
    23    12     6   ar
@<TRIPOS>MOLECULE
*****
 21 23 0 0 0
SMALL
GASTEIGER

@<TRIPOS>ATOM
      1 C         139.5168  139.9083  164.7556 C.ar    1  UNL1        0.1378
      2 N         139.1550  139.4918  166.1504 N.ar    1  UNL1       -0.1770
      3 C         139.8219  140.1444  167.3249 C.ar    1  UNL1        0.3552
      4 O         139.4600  139.7278  168.7198 O.2     1  UNL1       -0.2440
      5 N         140.8506  141.2135  167.1045 N.ar    1  UNL1       -0.2573
      6 C         141.2125  141.6301  165.7096 C.ar    1  UNL1        0.0718
      7 C         142.2412  142.6992  165.4893 C.ar    1  UNL1        0.0291
      8 C         142.6030  143.1158  164.0944 C.ar    1  UNL1        0.0591
      9 CL        143.6318  144.1849  163.8740 Cl      1  UNL1       -0.0822
     10 C         141.9361  142.4631  162.9200 C.ar    1  UNL1        0.0116
     11 C         140.9074  141.3940  163.1404 C.ar    1  UNL1        0.0051
     12 C         140.5456  140.9775  164.5352 C.ar    1  UNL1        0.0480
     13 C         141.5175  141.8662  168.2790 C.ar    1  UNL1        0.0874
     14 C         142.9014  141.4508  168.6818 C.ar    1  UNL1        0.0208
     15 C         143.5683  142.1034  169.8563 C.ar    1  UNL1        0.0222
     16 C         142.8514  143.1714  170.6278 C.ar    1  UNL1        0.0990
     17 N         141.4674  143.5868  170.2250 N.ar    1  UNL1       -0.2408
     18 C         140.8005  142.9342  169.0505 C.ar    1  UNL1        0.1164
     19 C         137.8291  140.0113  162.7831 C.3     1  UNL1        0.1136
     20 N         138.8499  139.2557  163.5812 N.pl3   1  UNL1       -0.2896
     21 C         139.2038  137.8474  163.2049 C.3     1  UNL1        0.1136
@<TRIPOS>BOND
     1    19    20    1
     2    20    21    1
     3    20     1    1
     4     1     2   ar
     5     2     3   ar
     6     3     4    2
     7     3     5   ar
     8     5    13    1
     9    13    14   ar
    10    14    15   ar
    11    15    16   ar
    12    16    17   ar
    13    17    18   ar
    14     5     6   ar
    15     6     7   ar
    16     7     8   ar
    17     8     9    1
    18     8    10   ar
    19    10    11   ar
    20    11    12   ar
    21    12     1   ar
    22    18    13   ar
    23    12     6   ar
@<TRIPOS>MOLECULE
*****
 21 23 0 0 0
SMALL
GASTEIGER

@<TRIPOS>ATOM
      1 C         142.1999  140.6568  168.3494 C.ar    1  UNL1        0.1378
      2 N         142.9911  139.4001  168.1376 N.ar    1  UNL1       -0.1770
      3 C         143.0996  138.8045  166.7652 C.ar    1  UNL1        0.3552
      4 O         143.8909  137.5478  166.5535 O.2     1  UNL1       -0.2440
      5 N         142.4170  139.4654  165.6046 N.ar    1  UNL1       -0.2573
      6 C         141.6258  140.7221  165.8163 C.ar    1  UNL1        0.0718
      7 C         140.9431  141.3831  164.6557 C.ar    1  UNL1        0.0291
      8 C         140.1520  142.6397  164.8675 C.ar    1  UNL1        0.0591
      9 CL        139.4693  143.3008  163.7068 Cl      1  UNL1       -0.0822
     10 C         140.0434  143.2354  166.2398 C.ar    1  UNL1        0.0116
     11 C         140.7261  142.5744  167.4005 C.ar    1  UNL1        0.0051
     12 C         141.5172  141.3178  167.1887 C.ar    1  UNL1        0.0480
     13 C         142.5256  138.8698  164.2322 C.ar    1  UNL1        0.0874
     14 C         143.7176  139.1748  163.3744 C.ar    1  UNL1        0.0208
     15 C         143.8261  138.5791  162.0020 C.ar    1  UNL1        0.0222
     16 C         142.7426  137.6785  161.4875 C.ar    1  UNL1        0.0990
     17 N         141.5505  137.3734  162.3454 N.ar    1  UNL1       -0.2408
     18 C         141.4420  137.9691  163.7177 C.ar    1  UNL1        0.1164
     19 C         141.0379  140.7629  170.6707 C.3     1  UNL1        0.1136
     20 N         142.0914  141.2524  169.7217 N.pl3   1  UNL1       -0.2896
     21 C         143.0364  142.3377  170.1452 C.3     1  UNL1        0.1136
@<TRIPOS>BOND
     1    19    20    1
     2    20    21    1
     3    20     1    1
     4     1     2   ar
     5     2     3   ar
     6     3     4    2
     7     3     5   ar
     8     5    13    1
     9    13    14   ar
    10    14    15   ar
    11    15    16   ar
    12    16    17   ar
    13    17    18   ar
    14     5     6   ar
    15     6     7   ar
    16     7     8   ar
    17     8     9    1
    18     8    10   ar
    19    10    11   ar
    20    11    12   ar
    21    12     1   ar
    22    18    13   ar
    23    12     6   ar
@<TRIPOS>MOLECULE
*****
 21 23 0 0 0
SMALL
GASTEIGER

@<TRIPOS>ATOM
      1 C         140.9931  139.3211  164.3746 C.ar    1  UNL1        0.1378
      2 N         141.8998  138.6720  165.3777 N.ar    1  UNL1       -0.1770
      3 C         142.2401  139.3848  166.6529 C.ar    1  UNL1        0.3552
      4 O         143.1469  138.7356  167.6561 O.2     1  UNL1       -0.2440
      5 N         141.6736  140.7468  166.9249 N.ar    1  UNL1       -0.2573
      6 C         140.7669  141.3961  165.9217 C.ar    1  UNL1        0.0718
      7 C         140.2004  142.7581  166.1937 C.ar    1  UNL1        0.0291
      8 C         139.2937  143.4072  165.1905 C.ar    1  UNL1        0.0591
      9 CL        138.7272  144.7693  165.4625 Cl      1  UNL1       -0.0822
     10 C         138.9534  142.6944  163.9154 C.ar    1  UNL1        0.0116
     11 C         139.5198  141.3324  163.6434 C.ar    1  UNL1        0.0051
     12 C         140.4266  140.6832  164.6465 C.ar    1  UNL1        0.0480
     13 C         142.0139  141.4597  168.2001 C.ar    1  UNL1        0.0874
     14 C         141.0740  141.3984  169.3674 C.ar    1  UNL1        0.0208
     15 C         141.4143  142.1113  170.6425 C.ar    1  UNL1        0.0222
     16 C         142.6945  142.8854  170.7504 C.ar    1  UNL1        0.0990
     17 N         143.6346  142.9466  169.5830 N.ar    1  UNL1       -0.2408
     18 C         143.2943  142.2338  168.3079 C.ar    1  UNL1        0.1164
     19 C         139.4643  137.6947  163.0450 C.3     1  UNL1        0.1136
     20 N         140.6528  138.6083  163.0994 N.pl3   1  UNL1       -0.2896
     21 C         141.5010  138.8090  161.8786 C.3     1  UNL1        0.1136
@<TRIPOS>BOND
     1    19    20    1
     2    20    21    1
     3    20     1    1
     4     1     2   ar
     5     2     3   ar
     6     3     4    2
     7     3     5   ar
     8     5    13    1
     9    13    14   ar
    10    14    15   ar
    11    15    16   ar
    12    16    17   ar
    13    17    18   ar
    14     5     6   ar
    15     6     7   ar
    16     7     8   ar
    17     8     9    1
    18     8    10   ar
    19    10    11   ar
    20    11    12   ar
    21    12     1   ar
    22    18    13   ar
    23    12     6   ar
@<TRIPOS>MOLECULE
*****
 21 23 0 0 0
SMALL
GASTEIGER

@<TRIPOS>ATOM
      1 C         141.3119  141.7094  168.8299 C.ar    1  UNL1        0.1378
      2 N         142.5397  142.4905  168.4665 N.ar    1  UNL1       -0.1770
      3 C         143.1181  142.3799  167.0869 C.ar    1  UNL1        0.3552
      4 O         144.3460  143.1611  166.7236 O.2     1  UNL1       -0.2440
      5 N         142.4685  141.4881  166.0707 N.ar    1  UNL1       -0.2573
      6 C         141.2406  140.7069  166.4340 C.ar    1  UNL1        0.0718
      7 C         140.5910  139.8152  165.4178 C.ar    1  UNL1        0.0291
      8 C         139.3632  139.0340  165.7811 C.ar    1  UNL1        0.0591
      9 CL        138.7135  138.1422  164.7649 Cl      1  UNL1       -0.0822
     10 C         138.7848  139.1446  167.1607 C.ar    1  UNL1        0.0116
     11 C         139.4344  140.0364  168.1770 C.ar    1  UNL1        0.0051
     12 C         140.6622  140.8175  167.8136 C.ar    1  UNL1        0.0480
     13 C         143.0468  141.3775  164.6911 C.ar    1  UNL1        0.0874
     14 C         144.1145  140.3637  164.4045 C.ar    1  UNL1        0.0208
     15 C         144.6929  140.2531  163.0249 C.ar    1  UNL1        0.0222
     16 C         144.2035  141.1563  161.9319 C.ar    1  UNL1        0.0990
     17 N         143.1357  142.1701  162.2184 N.ar    1  UNL1       -0.2408
     18 C         142.5574  142.2808  163.5980 C.ar    1  UNL1        0.1164
     19 C         139.7743  142.9265  170.5341 C.3     1  UNL1        0.1136
     20 N         140.7335  141.8200  170.2095 N.pl3   1  UNL1       -0.2896
     21 C         141.1145  140.8240  171.2645 C.3     1  UNL1        0.1136
@<TRIPOS>BOND
     1    19    20    1
     2    20    21    1
     3    20     1    1
     4     1     2   ar
     5     2     3   ar
     6     3     4    2
     7     3     5   ar
     8     5    13    1
     9    13    14   ar
    10    14    15   ar
    11    15    16   ar
    12    16    17   ar
    13    17    18   ar
    14     5     6   ar
    15     6     7   ar
    16     7     8   ar
    17     8     9    1
    18     8    10   ar
    19    10    11   ar
    20    11    12   ar
    21    12     1   ar
    22    18    13   ar
    23    12     6   ar
@<TRIPOS>MOLECULE
*****
 21 23 0 0 0
SMALL
GASTEIGER

@<TRIPOS>ATOM
      1 C         138.8035  139.7778  164.9666 C.ar    1  UNL1        0.1378
      2 N         137.8693  140.2107  163.8757 N.ar    1  UNL1       -0.1770
      3 C         138.2026  141.4063  163.0334 C.ar    1  UNL1        0.3552
      4 O         137.2684  141.8391  161.9425 O.2     1  UNL1       -0.2440
      5 N         139.4699  142.1691  163.2820 N.ar    1  UNL1       -0.2573
      6 C         140.4041  141.7363  164.3730 C.ar    1  UNL1        0.0718
      7 C         141.6715  142.4991  164.6215 C.ar    1  UNL1        0.0291
      8 C         142.6056  142.0663  165.7124 C.ar    1  UNL1        0.0591
      9 CL        143.8731  142.8291  165.9610 Cl      1  UNL1       -0.0822
     10 C         142.2724  140.8707  166.5547 C.ar    1  UNL1        0.0116
     11 C         141.0050  140.1078  166.3061 C.ar    1  UNL1        0.0051
     12 C         140.0709  140.5407  165.2152 C.ar    1  UNL1        0.0480
     13 C         139.8032  143.3647  162.4398 C.ar    1  UNL1        0.0874
     14 C         139.3581  144.7316  162.8683 C.ar    1  UNL1        0.0208
     15 C         139.6914  145.9272  162.0260 C.ar    1  UNL1        0.0222
     16 C         140.4696  145.7560  160.7553 C.ar    1  UNL1        0.0990
     17 N         140.9147  144.3891  160.3267 N.ar    1  UNL1       -0.2408
     18 C         140.5815  143.1935  161.1689 C.ar    1  UNL1        0.1164
     19 C         138.8569  137.2084  165.3473 C.3     1  UNL1        0.1136
     20 N         138.4702  138.5822  165.8088 N.pl3   1  UNL1       -0.2896
     21 C         137.7503  138.7604  167.1127 C.3     1  UNL1        0.1136
@<TRIPOS>BOND
     1    19    20    1
     2    20    21    1
     3    20     1    1
     4     1     2   ar
     5     2     3   ar
     6     3     4    2
     7     3     5   ar
     8     5    13    1
     9    13    14   ar
    10    14    15   ar
    11    15    16   ar
    12    16    17   ar
    13    17    18   ar
    14     5     6   ar
    15     6     7   ar
    16     7     8   ar
    17     8     9    1
    18     8    10   ar
    19    10    11   ar
    20    11    12   ar
    21    12     1   ar
    22    18    13   ar
    23    12     6   ar
@<TRIPOS>MOLECULE
*****
 21 23 0 0 0
SMALL
GASTEIGER

@<TRIPOS>ATOM
      1 C         142.4408  141.6105  168.6275 C.ar    1  UNL1        0.1378
      2 N         143.5599  142.4738  168.1252 N.ar    1  UNL1       -0.1770
      3 C         143.5929  142.8970  166.6865 C.ar    1  UNL1        0.3552
      4 O         144.7121  143.7603  166.1842 O.2     1  UNL1       -0.2440
      5 N         142.5068  142.4571  165.7502 N.ar    1  UNL1       -0.2573
      6 C         141.3876  141.5938  166.2525 C.ar    1  UNL1        0.0718
      7 C         140.3015  141.1539  165.3161 C.ar    1  UNL1        0.0291
      8 C         139.1824  140.2906  165.8184 C.ar    1  UNL1        0.0591
      9 CL        138.0962  139.8506  164.8821 Cl      1  UNL1       -0.0822
     10 C         139.1494  139.8674  167.2571 C.ar    1  UNL1        0.0116
     11 C         140.2355  140.3073  168.1934 C.ar    1  UNL1        0.0051
     12 C         141.3546  141.1705  167.6911 C.ar    1  UNL1        0.0480
     13 C         142.5398  142.8803  164.3115 C.ar    1  UNL1        0.0874
     14 C         141.8787  144.1593  163.8906 C.ar    1  UNL1        0.0208
     15 C         141.9117  144.5825  162.4520 C.ar    1  UNL1        0.0222
     16 C         142.6059  143.7269  161.4342 C.ar    1  UNL1        0.0990
     17 N         143.2671  142.4479  161.8550 N.ar    1  UNL1       -0.2408
     18 C         143.2341  142.0246  163.2937 C.ar    1  UNL1        0.1164
     19 C         142.9863  139.8643  170.4722 C.3     1  UNL1        0.1136
     20 N         142.4077  141.1873  170.0661 N.pl3   1  UNL1       -0.2896
     21 C         141.7961  142.0871  171.0988 C.3     1  UNL1        0.1136
@<TRIPOS>BOND
     1    19    20    1
     2    20    21    1
     3    20     1    1
     4     1     2   ar
     5     2     3   ar
     6     3     4    2
     7     3     5   ar
     8     5    13    1
     9    13    14   ar
    10    14    15   ar
    11    15    16   ar
    12    16    17   ar
    13    17    18   ar
    14     5     6   ar
    15     6     7   ar
    16     7     8   ar
    17     8     9    1
    18     8    10   ar
    19    10    11   ar
    20    11    12   ar
    21    12     1   ar
    22    18    13   ar
    23    12     6   ar
@<TRIPOS>MOLECULE
*****
 21 23 0 0 0
SMALL
GASTEIGER

@<TRIPOS>ATOM
      1 C         142.4832  141.5345  162.6258 C.ar    1  UNL1        0.1378
      2 N         141.0096  141.7628  162.4630 N.ar    1  UNL1       -0.1770
      3 C         140.0347  141.0057  163.3153 C.ar    1  UNL1        0.3552
      4 O         138.5611  141.2339  163.1524 O.2     1  UNL1       -0.2440
      5 N         140.5333  140.0203  164.3304 N.ar    1  UNL1       -0.2573
      6 C         142.0070  139.7921  164.4932 C.ar    1  UNL1        0.0718
      7 C         142.5056  138.8068  165.5083 C.ar    1  UNL1        0.0291
      8 C         143.9791  138.5785  165.6712 C.ar    1  UNL1        0.0591
      9 CL        144.4778  137.5932  166.6863 Cl      1  UNL1       -0.0822
     10 C         144.9540  139.3356  164.8189 C.ar    1  UNL1        0.0116
     11 C         144.4554  140.3209  163.8038 C.ar    1  UNL1        0.0051
     12 C         142.9819  140.5492  163.6410 C.ar    1  UNL1        0.0480
     13 C         139.5584  139.2633  165.1827 C.ar    1  UNL1        0.0874
     14 C         138.9978  139.8948  166.4223 C.ar    1  UNL1        0.0208
     15 C         138.0229  139.1377  167.2746 C.ar    1  UNL1        0.0222
     16 C         137.6086  137.7491  166.8872 C.ar    1  UNL1        0.0990
     17 N         138.1693  137.1175  165.6475 N.ar    1  UNL1       -0.2408
     18 C         139.1442  137.8746  164.7952 C.ar    1  UNL1        0.1164
     19 C         143.8655  141.7476  160.4364 C.3     1  UNL1        0.1136
     20 N         143.4581  142.2916  161.7735 N.pl3   1  UNL1       -0.2896
     21 C         144.0255  143.5928  162.2585 C.3     1  UNL1        0.1136
@<TRIPOS>BOND
     1    19    20    1
     2    20    21    1
     3    20     1    1
     4     1     2   ar
     5     2     3   ar
     6     3     4    2
     7     3     5   ar
     8     5    13    1
     9    13    14   ar
    10    14    15   ar
    11    15    16   ar
    12    16    17   ar
    13    17    18   ar
    14     5     6   ar
    15     6     7   ar
    16     7     8   ar
    17     8     9    1
    18     8    10   ar
    19    10    11   ar
    20    11    12   ar
    21    12     1   ar
    22    18    13   ar
    23    12     6   ar
@<TRIPOS>MOLECULE
*****
 21 23 0 0 0
SMALL
GASTEIGER

@<TRIPOS>ATOM
      1 C         139.4814  139.5949  165.5796 C.ar    1  UNL1        0.1378
      2 N         139.3765  140.0558  164.1560 N.ar    1  UNL1       -0.1770
      3 C         140.2703  141.1511  163.6545 C.ar    1  UNL1        0.3552
      4 O         140.1654  141.6120  162.2309 O.2     1  UNL1       -0.2440
      5 N         141.2690  141.7854  164.5765 N.ar    1  UNL1       -0.2573
      6 C         141.3740  141.3244  166.0002 C.ar    1  UNL1        0.0718
      7 C         142.3727  141.9587  166.9222 C.ar    1  UNL1        0.0291
      8 C         142.4776  141.4978  168.3457 C.ar    1  UNL1        0.0591
      9 CL        143.4764  142.1321  169.2678 Cl      1  UNL1       -0.0822
     10 C         141.5838  140.4025  168.8472 C.ar    1  UNL1        0.0116
     11 C         140.5850  139.7682  167.9252 C.ar    1  UNL1        0.0051
     12 C         140.4802  140.2292  166.5017 C.ar    1  UNL1        0.0480
     13 C         142.1629  142.8806  164.0750 C.ar    1  UNL1        0.0874
     14 C         141.7442  144.3140  164.2160 C.ar    1  UNL1        0.0208
     15 C         142.6380  145.4093  163.7145 C.ar    1  UNL1        0.0222
     16 C         143.9505  145.0711  163.0720 C.ar    1  UNL1        0.0990
     17 N         144.3693  143.6376  162.9310 N.ar    1  UNL1       -0.2408
     18 C         143.4755  142.5424  163.4325 C.ar    1  UNL1        0.1164
     19 C         138.6660  137.1304  165.4737 C.3     1  UNL1        0.1136
     20 N         138.5876  138.4996  166.0811 N.pl3   1  UNL1       -0.2896
     21 C         137.6153  138.7737  167.1900 C.3     1  UNL1        0.1136
@<TRIPOS>BOND
     1    19    20    1
     2    20    21    1
     3    20     1    1
     4     1     2   ar
     5     2     3   ar
     6     3     4    2
     7     3     5   ar
     8     5    13    1
     9    13    14   ar
    10    14    15   ar
    11    15    16   ar
    12    16    17   ar
    13    17    18   ar
    14     5     6   ar
    15     6     7   ar
    16     7     8   ar
    17     8     9    1
    18     8    10   ar
    19    10    11   ar
    20    11    12   ar
    21    12     1   ar
    22    18    13   ar
    23    12     6   ar
