@<TRIPOS>MOLECULE
*****
 38 42 0 0 0
SMALL
GASTEIGER

@<TRIPOS>ATOM
      1 N         140.9773  138.5233  163.9743 N.am    1  UNL1       -0.2794
      2 C         140.4310  139.0435  162.6778 C.2     1  UNL1        0.2495
      3 O         139.2664  139.9889  162.6802 O.2     1  UNL1       -0.2698
      4 H         141.7417  137.9028  163.9728 H       1  UNL1        0.1552
      5 N         138.2386  137.5527  164.7209 N.pl3   1  UNL1       -0.3560
      6 C         138.9898  138.4632  165.6464 C.ar    1  UNL1        0.0552
      7 C         138.3716  138.8885  166.9453 C.ar    1  UNL1        0.0153
      8 C         139.1228  139.7991  167.8708 C.ar    1  UNL1        0.0014
      9 C         140.4921  140.2844  167.4975 C.ar    1  UNL1        0.0035
     10 C         141.1103  139.8591  166.1987 C.ar    1  UNL1        0.0160
     11 C         140.3591  138.9485  165.2731 C.ar    1  UNL1        0.0636
     12 H         137.3399  137.2342  164.9659 H       1  UNL1        0.1424
     13 H         138.6444  137.2736  163.8684 H       1  UNL1        0.1424
     14 C         141.2433  141.1950  168.4230 C.ar    1  UNL1        0.0275
     15 C         140.6328  142.4952  168.8550 C.ar    1  UNL1        0.0022
     16 C         141.3841  143.4057  169.7805 C.ar    1  UNL1        0.0001
     17 C         142.7459  143.0160  170.2740 C.ar    1  UNL1        0.0023
     18 C         143.3564  141.7157  169.8421 C.ar    1  UNL1        0.0296
     19 C         142.6051  140.8052  168.9166 C.ar    1  UNL1        0.1401
     20 F         143.2157  139.5049  168.4846 F       1  UNL1       -0.2042
     21 C         141.0491  138.6183  161.3789 C.ar    1  UNL1        0.0537
     22 C         142.3959  137.9579  161.3697 C.ar    1  UNL1        0.0042
     23 C         143.0139  137.5328  160.0708 C.ar    1  UNL1       -0.0028
     24 C         142.2852  137.7680  158.7810 C.ar    1  UNL1       -0.0061
     25 C         140.9384  138.4283  158.7901 C.ar    1  UNL1       -0.0028
     26 C         140.3203  138.8534  160.0891 C.ar    1  UNL1        0.0042
     27 C         142.9033  137.3428  157.4821 C.3     1  UNL1        0.0991
     28 N         142.6615  135.9600  156.9536 N.3     1  UNL1       -0.2689
     29 C         143.3730  134.7888  157.5634 C.3     1  UNL1        0.0737
     30 C         143.1312  133.4060  157.0348 C.3     1  UNL1        0.0318
     31 C         142.1777  133.1944  155.8964 C.3     1  UNL1        0.0446
     32 C         141.2579  132.8298  154.7690 C.3     1  UNL1        0.0160
     33 C         141.3249  131.3435  154.5782 C.3     1  UNL1        0.0184
     34 C         142.2862  130.7895  155.5877 C.3     1  UNL1        0.0685
     35 N         142.8133  131.9334  156.4023 N.3     1  UNL1       -0.2995
     36 C         141.4662  134.3656  155.2865 C.3     1  UNL1        0.0318
     37 C         141.7080  135.7483  155.8151 C.3     1  UNL1        0.0737
     38 H         143.8266  131.9920  156.3018 H       1  UNL1        0.1232
@<TRIPOS>BOND
     1     5     6    1
     2     6     7   ar
     3     7     8   ar
     4     8     9   ar
     5     9    14    1
     6    14    15   ar
     7    15    16   ar
     8    16    17   ar
     9    17    18   ar
    10    18    19   ar
    11    19    20    1
    12     9    10   ar
    13    10    11   ar
    14    11     1    1
    15     1     2   am
    16     2     3    2
    17     2    21    1
    18    21    22   ar
    19    22    23   ar
    20    23    24   ar
    21    24    27    1
    22    27    28    1
    23    28    29    1
    24    29    30    1
    25    30    31    1
    26    31    32    1
    27    32    33    1
    28    33    34    1
    29    34    35    1
    30    31    36    1
    31    36    37    1
    32    24    25   ar
    33    25    26   ar
    34    11     6   ar
    35    26    21   ar
    36    19    14   ar
    37    37    28    1
    38    35    31    1
    39     5    12    1
    40     5    13    1
    41     1     4    1
    42    35    38    1
@<TRIPOS>MOLECULE
*****
 38 42 0 0 0
SMALL
GASTEIGER

@<TRIPOS>ATOM
      1 N         140.2864  140.9664  161.0953 N.am    1  UNL1       -0.2794
      2 C         139.7873  139.6076  160.7024 C.2     1  UNL1        0.2495
      3 O         138.6259  138.9962  161.4287 O.2     1  UNL1       -0.2698
      4 H         141.0487  141.3676  160.6186 H       1  UNL1        0.1552
      5 N         138.2539  143.0873  160.4864 N.pl3   1  UNL1       -0.3560
      6 C         138.6079  142.7743  161.9101 C.ar    1  UNL1        0.0552
      7 C         137.9456  143.5219  163.0292 C.ar    1  UNL1        0.0153
      8 C         138.2997  143.2089  164.4529 C.ar    1  UNL1        0.0014
      9 C         139.3159  142.1485  164.7573 C.ar    1  UNL1        0.0035
     10 C         139.9782  141.4010  163.6381 C.ar    1  UNL1        0.0160
     11 C         139.6242  141.7139  162.2145 C.ar    1  UNL1        0.0636
     12 H         137.5869  143.7833  160.2866 H       1  UNL1        0.1424
     13 H         138.6885  142.5966  159.7518 H       1  UNL1        0.1424
     14 C         139.6700  141.8356  166.1810 C.ar    1  UNL1        0.0275
     15 C         140.3791  142.8573  167.0196 C.ar    1  UNL1        0.0022
     16 C         140.7332  142.5443  168.4432 C.ar    1  UNL1        0.0001
     17 C         140.3781  141.2095  169.0282 C.ar    1  UNL1        0.0023
     18 C         139.6689  140.1878  168.1896 C.ar    1  UNL1        0.0296
     19 C         139.3149  140.5008  166.7660 C.ar    1  UNL1        0.1401
     20 F         138.6058  139.4790  165.9275 F       1  UNL1       -0.2042
     21 C         140.4495  138.8599  159.5832 C.ar    1  UNL1        0.0537
     22 C         141.8986  138.4863  159.6849 C.ar    1  UNL1        0.0042
     23 C         142.5607  137.7387  158.5656 C.ar    1  UNL1       -0.0028
     24 C         141.7737  137.3647  157.3447 C.ar    1  UNL1       -0.0061
     25 C         140.3245  137.7383  157.2430 C.ar    1  UNL1       -0.0028
     26 C         139.6624  138.4859  158.3622 C.ar    1  UNL1        0.0042
     27 C         142.4358  136.6171  156.2255 C.3     1  UNL1        0.0991
     28 N         142.4968  135.1186  156.2574 N.3     1  UNL1       -0.2689
     29 C         143.3683  134.4246  157.2617 C.3     1  UNL1        0.0737
     30 C         143.4293  132.9262  157.2935 C.3     1  UNL1        0.0318
     31 C         142.6187  132.1218  156.3209 C.3     1  UNL1        0.0446
     32 C         141.8689  131.1895  155.4162 C.3     1  UNL1        0.0160
     33 C         142.2270  129.7841  155.7992 C.3     1  UNL1        0.0184
     34 C         143.1982  129.8478  156.9406 C.3     1  UNL1        0.0685
     35 N         143.4403  131.2926  157.2631 N.3     1  UNL1       -0.2995
     36 C         141.7472  132.8158  155.3166 C.3     1  UNL1        0.0318
     37 C         141.6863  134.3142  155.2848 C.3     1  UNL1        0.0737
     38 H         144.4293  131.5125  157.1453 H       1  UNL1        0.1232
@<TRIPOS>BOND
     1     5     6    1
     2     6     7   ar
     3     7     8   ar
     4     8     9   ar
     5     9    14    1
     6    14    15   ar
     7    15    16   ar
     8    16    17   ar
     9    17    18   ar
    10    18    19   ar
    11    19    20    1
    12     9    10   ar
    13    10    11   ar
    14    11     1    1
    15     1     2   am
    16     2     3    2
    17     2    21    1
    18    21    22   ar
    19    22    23   ar
    20    23    24   ar
    21    24    27    1
    22    27    28    1
    23    28    29    1
    24    29    30    1
    25    30    31    1
    26    31    32    1
    27    32    33    1
    28    33    34    1
    29    34    35    1
    30    31    36    1
    31    36    37    1
    32    24    25   ar
    33    25    26   ar
    34    11     6   ar
    35    26    21   ar
    36    19    14   ar
    37    37    28    1
    38    35    31    1
    39     5    12    1
    40     5    13    1
    41     1     4    1
    42    35    38    1
@<TRIPOS>MOLECULE
*****
 38 42 0 0 0
SMALL
GASTEIGER

@<TRIPOS>ATOM
      1 N         143.4005  140.4636  162.2649 N.am    1  UNL1       -0.2794
      2 C         142.2608  140.7072  161.3206 C.2     1  UNL1        0.2495
      3 O         141.2239  141.7406  161.6474 O.2     1  UNL1       -0.2698
      4 H         144.0811  139.7853  162.0505 H       1  UNL1        0.1552
      5 N         145.0503  142.9680  162.3455 N.pl3   1  UNL1       -0.3560
      6 C         144.3282  142.5056  163.5762 C.ar    1  UNL1        0.0552
      7 C         144.4309  143.2955  164.8473 C.ar    1  UNL1        0.0153
      8 C         143.7087  142.8331  166.0781 C.ar    1  UNL1        0.0014
      9 C         142.8839  141.5810  166.0377 C.ar    1  UNL1        0.0035
     10 C         142.7812  140.7911  164.7667 C.ar    1  UNL1        0.0160
     11 C         143.5033  141.2535  163.5360 C.ar    1  UNL1        0.0636
     12 H         145.5917  143.7898  162.3720 H       1  UNL1        0.1424
     13 H         144.9829  142.4496  161.5113 H       1  UNL1        0.1424
     14 C         142.1617  141.1186  167.2685 C.ar    1  UNL1        0.0275
     15 C         142.6759  139.9406  168.0419 C.ar    1  UNL1        0.0022
     16 C         141.9537  139.4783  169.2726 C.ar    1  UNL1        0.0001
     17 C         140.7173  140.1939  169.7299 C.ar    1  UNL1        0.0023
     18 C         140.2031  141.3719  168.9566 C.ar    1  UNL1        0.0296
     19 C         140.9253  141.8342  167.7259 C.ar    1  UNL1        0.1401
     20 F         140.4111  143.0122  166.9525 F       1  UNL1       -0.2042
     21 C         142.1580  139.9174  160.0495 C.ar    1  UNL1        0.0537
     22 C         140.9063  139.1498  159.7425 C.ar    1  UNL1        0.0042
     23 C         140.8036  138.3600  158.4714 C.ar    1  UNL1       -0.0028
     24 C         141.9525  138.3378  157.5073 C.ar    1  UNL1       -0.0061
     25 C         143.2041  139.1054  157.8143 C.ar    1  UNL1       -0.0028
     26 C         143.3069  139.8952  159.0853 C.ar    1  UNL1        0.0042
     27 C         141.8496  137.5481  156.2362 C.3     1  UNL1        0.0991
     28 N         142.0494  136.0616  156.2586 N.3     1  UNL1       -0.2689
     29 C         142.9860  135.4455  157.2552 C.3     1  UNL1        0.0737
     30 C         143.1857  133.9590  157.2776 C.3     1  UNL1        0.0318
     31 C         142.4487  133.0886  156.3033 C.3     1  UNL1        0.0446
     32 C         141.7844  132.0960  155.3958 C.3     1  UNL1        0.0160
     33 C         142.2729  130.7277  155.7687 C.3     1  UNL1        0.0184
     34 C         143.2392  130.8746  156.9066 C.3     1  UNL1        0.0685
     35 N         143.3478  132.3337  157.2370 N.3     1  UNL1       -0.2995
     36 C         141.5121  133.7046  155.3067 C.3     1  UNL1        0.0318
     37 C         141.3125  135.1911  155.2843 C.3     1  UNL1        0.0737
     38 H         144.3117  132.6450  157.1167 H       1  UNL1        0.1232
@<TRIPOS>BOND
     1     5     6    1
     2     6     7   ar
     3     7     8   ar
     4     8     9   ar
     5     9    14    1
     6    14    15   ar
     7    15    16   ar
     8    16    17   ar
     9    17    18   ar
    10    18    19   ar
    11    19    20    1
    12     9    10   ar
    13    10    11   ar
    14    11     1    1
    15     1     2   am
    16     2     3    2
    17     2    21    1
    18    21    22   ar
    19    22    23   ar
    20    23    24   ar
    21    24    27    1
    22    27    28    1
    23    28    29    1
    24    29    30    1
    25    30    31    1
    26    31    32    1
    27    32    33    1
    28    33    34    1
    29    34    35    1
    30    31    36    1
    31    36    37    1
    32    24    25   ar
    33    25    26   ar
    34    11     6   ar
    35    26    21   ar
    36    19    14   ar
    37    37    28    1
    38    35    31    1
    39     5    12    1
    40     5    13    1
    41     1     4    1
    42    35    38    1
@<TRIPOS>MOLECULE
*****
 38 42 0 0 0
SMALL
GASTEIGER

@<TRIPOS>ATOM
      1 N         140.5885  141.5261  161.5195 N.am    1  UNL1       -0.2794
      2 C         140.0892  140.1417  161.2294 C.2     1  UNL1        0.2495
      3 O         139.1063  139.4895  162.1560 O.2     1  UNL1       -0.2698
      4 H         141.2336  141.9542  160.9114 H       1  UNL1        0.1552
      5 N         138.1456  143.2596  161.3548 N.pl3   1  UNL1       -0.3560
      6 C         138.8835  143.1249  162.6537 C.ar    1  UNL1        0.0552
      7 C         138.3999  143.8570  163.8703 C.ar    1  UNL1        0.0153
      8 C         139.1379  143.7224  165.1694 C.ar    1  UNL1        0.0014
      9 C         140.3593  142.8557  165.2517 C.ar    1  UNL1        0.0035
     10 C         140.8428  142.1236  164.0351 C.ar    1  UNL1        0.0160
     11 C         140.1049  142.2582  162.7361 C.ar    1  UNL1        0.0636
     12 H         137.3439  143.8284  161.3007 H       1  UNL1        0.1424
     13 H         138.4629  142.7791  160.5562 H       1  UNL1        0.1424
     14 C         141.0972  142.7210  166.5507 C.ar    1  UNL1        0.0275
     15 C         140.3503  142.7982  167.8492 C.ar    1  UNL1        0.0022
     16 C         141.0883  142.6635  169.1481 C.ar    1  UNL1        0.0001
     17 C         142.5732  142.4517  169.1485 C.ar    1  UNL1        0.0023
     18 C         143.3202  142.3745  167.8500 C.ar    1  UNL1        0.0296
     19 C         142.5822  142.5091  166.5511 C.ar    1  UNL1        0.1401
     20 F         143.3291  142.4320  165.2526 F       1  UNL1       -0.2042
     21 C         140.5727  139.4095  160.0128 C.ar    1  UNL1        0.0537
     22 C         139.5877  138.7526  159.0918 C.ar    1  UNL1        0.0042
     23 C         140.0713  138.0204  157.8753 C.ar    1  UNL1       -0.0028
     24 C         141.5400  137.9451  157.5797 C.ar    1  UNL1       -0.0061
     25 C         142.5250  138.6020  158.5006 C.ar    1  UNL1       -0.0028
     26 C         142.0414  139.3342  159.7172 C.ar    1  UNL1        0.0042
     27 C         142.0235  137.2130  156.3631 C.3     1  UNL1        0.0991
     28 N         142.2534  135.7318  156.4212 N.3     1  UNL1       -0.2689
     29 C         143.1745  135.1557  157.4555 C.3     1  UNL1        0.0737
     30 C         143.4044  133.6746  157.5136 C.3     1  UNL1        0.0318
     31 C         142.7132  132.7695  156.5373 C.3     1  UNL1        0.0446
     32 C         142.0953  131.7452  155.6322 C.3     1  UNL1        0.0160
     33 C         142.6016  130.3953  156.0461 C.3     1  UNL1        0.0184
     34 C         143.5324  130.5853  157.2070 C.3     1  UNL1        0.0685
     35 N         143.6014  132.0526  157.5105 N.3     1  UNL1       -0.2995
     36 C         141.7922  133.3456  155.5029 C.3     1  UNL1        0.0318
     37 C         141.5623  134.8267  155.4449 C.3     1  UNL1        0.0737
     38 H         144.5615  132.3820  157.4105 H       1  UNL1        0.1232
@<TRIPOS>BOND
     1     5     6    1
     2     6     7   ar
     3     7     8   ar
     4     8     9   ar
     5     9    14    1
     6    14    15   ar
     7    15    16   ar
     8    16    17   ar
     9    17    18   ar
    10    18    19   ar
    11    19    20    1
    12     9    10   ar
    13    10    11   ar
    14    11     1    1
    15     1     2   am
    16     2     3    2
    17     2    21    1
    18    21    22   ar
    19    22    23   ar
    20    23    24   ar
    21    24    27    1
    22    27    28    1
    23    28    29    1
    24    29    30    1
    25    30    31    1
    26    31    32    1
    27    32    33    1
    28    33    34    1
    29    34    35    1
    30    31    36    1
    31    36    37    1
    32    24    25   ar
    33    25    26   ar
    34    11     6   ar
    35    26    21   ar
    36    19    14   ar
    37    37    28    1
    38    35    31    1
    39     5    12    1
    40     5    13    1
    41     1     4    1
    42    35    38    1
@<TRIPOS>MOLECULE
*****
 38 42 0 0 0
SMALL
GASTEIGER

@<TRIPOS>ATOM
      1 N         141.6687  138.0766  158.4578 N.am    1  UNL1       -0.2794
      2 C         142.1941  138.2968  159.8454 C.2     1  UNL1        0.2495
      3 O         143.5959  137.8891  160.1901 O.2     1  UNL1       -0.2698
      4 H         140.7487  138.3443  158.2316 H       1  UNL1        0.1552
      5 N         142.9865  139.7890  156.3766 N.pl3   1  UNL1       -0.3560
      6 C         143.2039  138.3048  156.3743 C.ar    1  UNL1        0.0552
      7 C         144.0803  137.6769  155.3314 C.ar    1  UNL1        0.0153
      8 C         144.2977  136.1927  155.3291 C.ar    1  UNL1        0.0014
      9 C         143.6388  135.3366  156.3697 C.ar    1  UNL1        0.0035
     10 C         142.7625  135.9645  157.4126 C.ar    1  UNL1        0.0160
     11 C         142.5450  137.4487  157.4149 C.ar    1  UNL1        0.0636
     12 H         143.4190  140.3509  155.6936 H       1  UNL1        0.1424
     13 H         142.4113  140.2012  157.0611 H       1  UNL1        0.1424
     14 C         143.8562  133.8523  156.3674 C.ar    1  UNL1        0.0275
     15 C         144.5188  133.1895  157.5386 C.ar    1  UNL1        0.0022
     16 C         144.7361  131.7054  157.5363 C.ar    1  UNL1        0.0001
     17 C         144.2909  130.8840  156.3628 C.ar    1  UNL1        0.0023
     18 C         143.6284  131.5468  155.1916 C.ar    1  UNL1        0.0296
     19 C         143.4110  133.0310  155.1939 C.ar    1  UNL1        0.1401
     20 F         142.7484  133.6938  154.0227 F       1  UNL1       -0.2042
     21 C         141.3178  138.9248  160.8884 C.ar    1  UNL1        0.0537
     22 C         140.1941  138.1389  161.4963 C.ar    1  UNL1        0.0042
     23 C         139.3179  138.7670  162.5392 C.ar    1  UNL1       -0.0028
     24 C         139.5655  140.1810  162.9744 C.ar    1  UNL1       -0.0061
     25 C         140.6892  140.9669  162.3666 C.ar    1  UNL1       -0.0028
     26 C         141.5654  140.3388  161.3236 C.ar    1  UNL1        0.0042
     27 C         138.6892  140.8089  164.0173 C.3     1  UNL1        0.0991
     28 N         139.1359  140.8461  165.4489 N.3     1  UNL1       -0.2689
     29 C         138.8074  139.7064  166.3670 C.3     1  UNL1        0.0737
     30 C         139.2541  139.7437  167.7984 C.3     1  UNL1        0.0318
     31 C         140.0293  140.9207  168.3118 C.3     1  UNL1        0.0446
     32 C         140.8074  142.0248  168.9641 C.3     1  UNL1        0.0160
     33 C         141.0353  141.6469  170.3977 C.3     1  UNL1        0.0184
     34 C         140.3980  140.3092  170.6314 C.3     1  UNL1        0.0685
     35 N         139.7763  139.8604  169.3422 N.3     1  UNL1       -0.2995
     36 C         140.3578  142.0605  167.3937 C.3     1  UNL1        0.0318
     37 C         139.9111  142.0232  165.9622 C.3     1  UNL1        0.0737
     38 H         138.7722  139.7327  169.4682 H       1  UNL1        0.1232
@<TRIPOS>BOND
     1     5     6    1
     2     6     7   ar
     3     7     8   ar
     4     8     9   ar
     5     9    14    1
     6    14    15   ar
     7    15    16   ar
     8    16    17   ar
     9    17    18   ar
    10    18    19   ar
    11    19    20    1
    12     9    10   ar
    13    10    11   ar
    14    11     1    1
    15     1     2   am
    16     2     3    2
    17     2    21    1
    18    21    22   ar
    19    22    23   ar
    20    23    24   ar
    21    24    27    1
    22    27    28    1
    23    28    29    1
    24    29    30    1
    25    30    31    1
    26    31    32    1
    27    32    33    1
    28    33    34    1
    29    34    35    1
    30    31    36    1
    31    36    37    1
    32    24    25   ar
    33    25    26   ar
    34    11     6   ar
    35    26    21   ar
    36    19    14   ar
    37    37    28    1
    38    35    31    1
    39     5    12    1
    40     5    13    1
    41     1     4    1
    42    35    38    1
@<TRIPOS>MOLECULE
*****
 38 42 0 0 0
SMALL
GASTEIGER

@<TRIPOS>ATOM
      1 N         141.4196  144.1526  161.8365 N.am    1  UNL1       -0.2794
      2 C         141.8730  143.5776  160.5274 C.2     1  UNL1        0.2495
      3 O         142.8884  142.4738  160.5045 O.2     1  UNL1       -0.2698
      4 H         140.7532  144.8772  161.8514 H       1  UNL1        0.1552
      5 N         144.2651  144.7395  162.5839 N.pl3   1  UNL1       -0.3560
      6 C         143.4043  143.9172  163.4964 C.ar    1  UNL1        0.0552
      7 C         143.9662  143.3884  164.7827 C.ar    1  UNL1        0.0153
      8 C         143.1053  142.5660  165.6953 C.ar    1  UNL1        0.0014
      9 C         141.6826  142.2726  165.3215 C.ar    1  UNL1        0.0035
     10 C         141.1207  142.8015  164.0353 C.ar    1  UNL1        0.0160
     11 C         141.9815  143.6238  163.1227 C.ar    1  UNL1        0.0636
     12 H         145.1989  144.9321  162.8292 H       1  UNL1        0.1424
     13 H         143.8963  145.0867  161.7397 H       1  UNL1        0.1424
     14 C         140.8217  141.4502  166.2341 C.ar    1  UNL1        0.0275
     15 C         140.0303  140.3006  165.6845 C.ar    1  UNL1        0.0022
     16 C         139.1694  139.4784  166.5970 C.ar    1  UNL1        0.0001
     17 C         139.1000  139.8057  168.0592 C.ar    1  UNL1        0.0023
     18 C         139.8914  140.9553  168.6088 C.ar    1  UNL1        0.0296
     19 C         140.7523  141.7776  167.6963 C.ar    1  UNL1        0.1401
     20 F         141.5437  142.9272  168.2459 F       1  UNL1       -0.2042
     21 C         141.3111  144.1065  159.2410 C.ar    1  UNL1        0.0537
     22 C         140.1089  143.4555  158.6238 C.ar    1  UNL1        0.0042
     23 C         139.5471  143.9843  157.3375 C.ar    1  UNL1       -0.0028
     24 C         140.1875  145.1642  156.6683 C.ar    1  UNL1       -0.0061
     25 C         141.3897  145.8152  157.2854 C.ar    1  UNL1       -0.0028
     26 C         141.9515  145.2863  158.5718 C.ar    1  UNL1        0.0042
     27 C         139.6257  145.6930  155.3820 C.3     1  UNL1        0.0991
     28 N         139.4881  147.1724  155.1756 N.3     1  UNL1       -0.2689
     29 C         138.7017  147.9960  156.1520 C.3     1  UNL1        0.0737
     30 C         138.5642  149.4753  155.9456 C.3     1  UNL1        0.0318
     31 C         139.2130  150.1311  154.7628 C.3     1  UNL1        0.0446
     32 C         139.8026  150.9222  153.6330 C.3     1  UNL1        0.0160
     33 C         139.4157  152.3591  153.8220 C.3     1  UNL1        0.0184
     34 C         138.5871  152.4560  155.0686 C.3     1  UNL1        0.0685
     35 N         138.4618  151.0790  155.6501 N.3     1  UNL1       -0.2995
     36 C         139.9994  149.3075  153.7865 C.3     1  UNL1        0.0318
     37 C         140.1369  147.8282  153.9929 C.3     1  UNL1        0.0737
     38 H         137.4791  150.8089  155.6918 H       1  UNL1        0.1232
@<TRIPOS>BOND
     1     5     6    1
     2     6     7   ar
     3     7     8   ar
     4     8     9   ar
     5     9    14    1
     6    14    15   ar
     7    15    16   ar
     8    16    17   ar
     9    17    18   ar
    10    18    19   ar
    11    19    20    1
    12     9    10   ar
    13    10    11   ar
    14    11     1    1
    15     1     2   am
    16     2     3    2
    17     2    21    1
    18    21    22   ar
    19    22    23   ar
    20    23    24   ar
    21    24    27    1
    22    27    28    1
    23    28    29    1
    24    29    30    1
    25    30    31    1
    26    31    32    1
    27    32    33    1
    28    33    34    1
    29    34    35    1
    30    31    36    1
    31    36    37    1
    32    24    25   ar
    33    25    26   ar
    34    11     6   ar
    35    26    21   ar
    36    19    14   ar
    37    37    28    1
    38    35    31    1
    39     5    12    1
    40     5    13    1
    41     1     4    1
    42    35    38    1
@<TRIPOS>MOLECULE
*****
 38 42 0 0 0
SMALL
GASTEIGER

@<TRIPOS>ATOM
      1 N         141.1079  142.9547  160.6896 N.am    1  UNL1       -0.2794
      2 C         142.5232  143.3152  160.3480 C.2     1  UNL1        0.2495
      3 O         143.3803  144.0244  161.3542 O.2     1  UNL1       -0.2698
      4 H         140.5453  142.4893  160.0293 H       1  UNL1        0.1552
      5 N         140.5986  145.8231  161.4059 N.pl3   1  UNL1       -0.3560
      6 C         140.2950  144.7377  162.3956 C.ar    1  UNL1        0.0552
      7 C         139.7367  145.0864  163.7434 C.ar    1  UNL1        0.0153
      8 C         139.4330  144.0009  164.7331 C.ar    1  UNL1        0.0014
      9 C         139.6876  142.5668  164.3750 C.ar    1  UNL1        0.0035
     10 C         140.2459  142.2180  163.0272 C.ar    1  UNL1        0.0160
     11 C         140.5496  143.3035  162.0375 C.ar    1  UNL1        0.0636
     12 H         140.4315  146.7645  161.6409 H       1  UNL1        0.1424
     13 H         140.9651  145.5943  160.5212 H       1  UNL1        0.1424
     14 C         139.3839  141.4812  165.3647 C.ar    1  UNL1        0.0275
     15 C         140.1331  141.4185  166.6627 C.ar    1  UNL1        0.0022
     16 C         139.8294  140.3330  167.6523 C.ar    1  UNL1        0.0001
     17 C         138.7765  139.3102  167.3440 C.ar    1  UNL1        0.0023
     18 C         138.0272  139.3729  166.0460 C.ar    1  UNL1        0.0296
     19 C         138.3310  140.4584  165.0564 C.ar    1  UNL1        0.1401
     20 F         137.5817  140.5211  163.7584 F       1  UNL1       -0.2042
     21 C         143.0817  142.9665  159.0001 C.ar    1  UNL1        0.0537
     22 C         142.6505  143.7368  157.7874 C.ar    1  UNL1        0.0042
     23 C         143.2089  143.3880  156.4397 C.ar    1  UNL1       -0.0028
     24 C         144.1986  142.2689  156.3046 C.ar    1  UNL1       -0.0061
     25 C         144.6298  141.4986  157.5174 C.ar    1  UNL1       -0.0028
     26 C         144.0713  141.8474  158.8651 C.ar    1  UNL1        0.0042
     27 C         144.7570  141.9202  154.9569 C.3     1  UNL1        0.0991
     28 N         146.2021  142.1834  154.6528 N.3     1  UNL1       -0.2689
     29 C         147.2721  141.4269  155.3827 C.3     1  UNL1        0.0737
     30 C         148.7172  141.6902  155.0785 C.3     1  UNL1        0.0318
     31 C         149.0922  142.7101  154.0445 C.3     1  UNL1        0.0446
     32 C         149.6170  143.6945  153.0418 C.3     1  UNL1        0.0160
     33 C         151.1153  143.6280  153.0672 C.3     1  UNL1        0.0184
     34 C         151.5165  142.6024  154.0857 C.3     1  UNL1        0.0685
     35 N         150.2662  142.0351  154.6896 N.3     1  UNL1       -0.2995
     36 C         148.0222  143.4666  153.3146 C.3     1  UNL1        0.0318
     37 C         146.5771  143.2033  153.6187 C.3     1  UNL1        0.0737
     38 H         150.2568  142.2101  155.6945 H       1  UNL1        0.1232
@<TRIPOS>BOND
     1     5     6    1
     2     6     7   ar
     3     7     8   ar
     4     8     9   ar
     5     9    14    1
     6    14    15   ar
     7    15    16   ar
     8    16    17   ar
     9    17    18   ar
    10    18    19   ar
    11    19    20    1
    12     9    10   ar
    13    10    11   ar
    14    11     1    1
    15     1     2   am
    16     2     3    2
    17     2    21    1
    18    21    22   ar
    19    22    23   ar
    20    23    24   ar
    21    24    27    1
    22    27    28    1
    23    28    29    1
    24    29    30    1
    25    30    31    1
    26    31    32    1
    27    32    33    1
    28    33    34    1
    29    34    35    1
    30    31    36    1
    31    36    37    1
    32    24    25   ar
    33    25    26   ar
    34    11     6   ar
    35    26    21   ar
    36    19    14   ar
    37    37    28    1
    38    35    31    1
    39     5    12    1
    40     5    13    1
    41     1     4    1
    42    35    38    1
@<TRIPOS>MOLECULE
*****
 38 42 0 0 0
SMALL
GASTEIGER

@<TRIPOS>ATOM
      1 N         141.9787  140.6876  162.1214 N.am    1  UNL1       -0.2794
      2 C         142.7916  141.6938  161.3620 C.2     1  UNL1        0.2495
      3 O         144.0618  142.2310  161.9520 O.2     1  UNL1       -0.2698
      4 H         141.1451  140.3350  161.7342 H       1  UNL1        0.1552
      5 N         144.4452  138.9972  162.3653 N.pl3   1  UNL1       -0.3560
      6 C         143.6693  139.3733  163.5927 C.ar    1  UNL1        0.0552
      7 C         144.1267  138.9042  164.9421 C.ar    1  UNL1        0.0153
      8 C         143.3507  139.2804  166.1695 C.ar    1  UNL1        0.0014
      9 C         142.1176  140.1256  166.0476 C.ar    1  UNL1        0.0035
     10 C         141.6603  140.5946  164.6982 C.ar    1  UNL1        0.0160
     11 C         142.4361  140.2185  163.4708 C.ar    1  UNL1        0.0636
     12 H         145.2545  138.4425  162.4453 H       1  UNL1        0.1424
     13 H         144.1450  139.3050  161.4797 H       1  UNL1        0.1424
     14 C         141.3417  140.5017  167.2750 C.ar    1  UNL1        0.0275
     15 C         141.9065  141.4985  168.2432 C.ar    1  UNL1        0.0022
     16 C         141.1305  141.8747  169.4706 C.ar    1  UNL1        0.0001
     17 C         139.7898  141.2540  169.7297 C.ar    1  UNL1        0.0023
     18 C         139.2250  140.2572  168.7615 C.ar    1  UNL1        0.0296
     19 C         140.0010  139.8811  167.5342 C.ar    1  UNL1        0.1401
     20 F         139.4362  138.8843  166.5659 F       1  UNL1       -0.2042
     21 C         142.3343  142.1630  160.0126 C.ar    1  UNL1        0.0537
     22 C         141.1322  141.5381  159.3689 C.ar    1  UNL1        0.0042
     23 C         140.6750  142.0073  158.0195 C.ar    1  UNL1       -0.0028
     24 C         141.4199  143.1014  157.3139 C.ar    1  UNL1       -0.0061
     25 C         142.6221  143.7263  157.9576 C.ar    1  UNL1       -0.0028
     26 C         143.0792  143.2571  159.3069 C.ar    1  UNL1        0.0042
     27 C         140.9627  143.5706  155.9645 C.3     1  UNL1        0.0991
     28 N         140.5045  144.9867  155.7784 N.3     1  UNL1       -0.2689
     29 C         139.6833  145.6551  156.8409 C.3     1  UNL1        0.0737
     30 C         139.2252  147.0713  156.6547 C.3     1  UNL1        0.0318
     31 C         139.5882  147.8190  155.4061 C.3     1  UNL1        0.0446
     32 C         139.8721  148.6884  154.2171 C.3     1  UNL1        0.0160
     33 C         139.2251  150.0211  154.4524 C.3     1  UNL1        0.0184
     34 C         138.5413  149.9753  155.7868 C.3     1  UNL1        0.0685
     35 N         138.7658  148.6143  156.3761 N.3     1  UNL1       -0.2995
     36 C         140.4094  147.1506  154.3436 C.3     1  UNL1        0.0318
     37 C         140.8676  145.7344  154.5298 C.3     1  UNL1        0.0737
     38 H         137.8698  148.1520  156.5308 H       1  UNL1        0.1232
@<TRIPOS>BOND
     1     5     6    1
     2     6     7   ar
     3     7     8   ar
     4     8     9   ar
     5     9    14    1
     6    14    15   ar
     7    15    16   ar
     8    16    17   ar
     9    17    18   ar
    10    18    19   ar
    11    19    20    1
    12     9    10   ar
    13    10    11   ar
    14    11     1    1
    15     1     2   am
    16     2     3    2
    17     2    21    1
    18    21    22   ar
    19    22    23   ar
    20    23    24   ar
    21    24    27    1
    22    27    28    1
    23    28    29    1
    24    29    30    1
    25    30    31    1
    26    31    32    1
    27    32    33    1
    28    33    34    1
    29    34    35    1
    30    31    36    1
    31    36    37    1
    32    24    25   ar
    33    25    26   ar
    34    11     6   ar
    35    26    21   ar
    36    19    14   ar
    37    37    28    1
    38    35    31    1
    39     5    12    1
    40     5    13    1
    41     1     4    1
    42    35    38    1
@<TRIPOS>MOLECULE
*****
 38 42 0 0 0
SMALL
GASTEIGER

@<TRIPOS>ATOM
      1 N         141.6000  141.4445  160.9494 N.am    1  UNL1       -0.2794
      2 C         142.7358  140.9324  160.1142 C.2     1  UNL1        0.2495
      3 O         144.1341  141.4075  160.3775 O.2     1  UNL1       -0.2698
      4 H         140.6823  141.1327  160.7766 H       1  UNL1        0.1552
      5 N         142.3953  144.2584  160.2791 N.pl3   1  UNL1       -0.3560
      6 C         142.2600  143.8386  161.7127 C.ar    1  UNL1        0.0552
      7 C         142.5223  144.8257  162.8113 C.ar    1  UNL1        0.0153
      8 C         142.3870  144.4058  164.2450 C.ar    1  UNL1        0.0014
      9 C         141.9894  142.9989  164.5801 C.ar    1  UNL1        0.0035
     10 C         141.7270  142.0118  163.4816 C.ar    1  UNL1        0.0160
     11 C         141.8623  142.4316  162.0479 C.ar    1  UNL1        0.0636
     12 H         142.6563  145.1819  160.0591 H       1  UNL1        0.1424
     13 H         142.2231  143.6106  159.5581 H       1  UNL1        0.1424
     14 C         141.8540  142.5790  166.0138 C.ar    1  UNL1        0.0275
     15 C         142.9566  141.8078  166.6768 C.ar    1  UNL1        0.0022
     16 C         142.8213  141.3879  168.1104 C.ar    1  UNL1        0.0001
     17 C         141.5833  141.7393  168.8811 C.ar    1  UNL1        0.0023
     18 C         140.4807  142.5104  168.2181 C.ar    1  UNL1        0.0296
     19 C         140.6160  142.9303  166.7845 C.ar    1  UNL1        0.1401
     20 F         139.5134  143.7015  166.1215 F       1  UNL1       -0.2042
     21 C         142.4736  139.9453  159.0156 C.ar    1  UNL1        0.0537
     22 C         143.4225  139.8410  157.8586 C.ar    1  UNL1        0.0042
     23 C         143.1602  138.8538  156.7601 C.ar    1  UNL1       -0.0028
     24 C         141.9489  137.9709  156.8187 C.ar    1  UNL1       -0.0061
     25 C         141.0000  138.0752  157.9757 C.ar    1  UNL1       -0.0028
     26 C         141.2623  139.0624  159.0741 C.ar    1  UNL1        0.0042
     27 C         141.6867  136.9838  155.7202 C.3     1  UNL1        0.0991
     28 N         142.0122  135.5334  155.9216 N.3     1  UNL1       -0.2689
     29 C         141.2680  134.4836  155.1510 C.3     1  UNL1        0.0737
     30 C         141.5936  133.0333  155.3525 C.3     1  UNL1        0.0318
     31 C         142.6634  132.6328  156.3247 C.3     1  UNL1        0.0446
     32 C         143.7020  132.0837  157.2572 C.3     1  UNL1        0.0160
     33 C         143.6880  130.5885  157.1379 C.3     1  UNL1        0.0184
     34 C         142.6407  130.2136  156.1316 C.3     1  UNL1        0.0685
     35 N         142.0074  131.4771  155.6290 N.3     1  UNL1       -0.2995
     36 C         143.4076  133.6827  157.0953 C.3     1  UNL1        0.0318
     37 C         143.0820  135.1330  156.8938 C.3     1  UNL1        0.0737
     38 H         141.0087  131.4699  155.8363 H       1  UNL1        0.1232
@<TRIPOS>BOND
     1     5     6    1
     2     6     7   ar
     3     7     8   ar
     4     8     9   ar
     5     9    14    1
     6    14    15   ar
     7    15    16   ar
     8    16    17   ar
     9    17    18   ar
    10    18    19   ar
    11    19    20    1
    12     9    10   ar
    13    10    11   ar
    14    11     1    1
    15     1     2   am
    16     2     3    2
    17     2    21    1
    18    21    22   ar
    19    22    23   ar
    20    23    24   ar
    21    24    27    1
    22    27    28    1
    23    28    29    1
    24    29    30    1
    25    30    31    1
    26    31    32    1
    27    32    33    1
    28    33    34    1
    29    34    35    1
    30    31    36    1
    31    36    37    1
    32    24    25   ar
    33    25    26   ar
    34    11     6   ar
    35    26    21   ar
    36    19    14   ar
    37    37    28    1
    38    35    31    1
    39     5    12    1
    40     5    13    1
    41     1     4    1
    42    35    38    1
