@<TRIPOS>MOLECULE
*****
 36 41 0 0 0
SMALL
GASTEIGER

@<TRIPOS>ATOM
      1 O         142.2345  144.6051  159.6533 O.2     1  UNL1       -0.2526
      2 C         141.7426  143.2721  160.1343 C.2     1  UNL1        0.3040
      3 N         140.8680  143.1896  161.3502 N.am    1  UNL1       -0.2874
      4 N         142.1253  142.0217  159.3995 N.am    1  UNL1       -0.2642
      5 C         142.9999  142.1042  158.1837 C.3     1  UNL1        0.0954
      6 C         143.3826  140.8538  157.4488 C.3     1  UNL1        0.0309
      7 C         142.8907  139.5209  157.9299 C.3     1  UNL1        0.0827
      8 C         142.0161  139.4384  159.1457 C.3     1  UNL1        0.0309
      9 C         141.6334  140.6888  159.8805 C.3     1  UNL1        0.0954
     10 H         140.5452  142.3148  161.6659 H       1  UNL1        0.1510
     11 C         143.2734  138.2705  157.1951 C.ar    1  UNL1        0.2362
     12 N         142.7751  136.8867  157.4904 N.ar    1  UNL1       -0.1895
     13 C         143.4154  135.9453  156.5137 C.ar    1  UNL1        0.2210
     14 N         144.3092  136.7471  155.6148 N.ar    1  UNL1       -0.0544
     15 O         144.2215  138.1841  156.0359 O.2     1  UNL1       -0.3370
     16 C         143.1995  134.4624  156.4476 C.ar    1  UNL1        0.1202
     17 C         142.0772  133.9038  155.6240 C.ar    1  UNL1        0.0224
     18 C         141.8613  132.4209  155.5578 C.ar    1  UNL1        0.0031
     19 C         142.7678  131.4965  156.3153 C.ar    1  UNL1        0.0177
     20 C         142.5520  130.0136  156.2492 C.ar    1  UNL1        0.0015
     21 C         143.4585  129.0893  157.0067 C.ar    1  UNL1        0.0001
     22 C         144.5808  129.6478  157.8303 C.ar    1  UNL1        0.0015
     23 C         144.7967  131.1307  157.8964 C.ar    1  UNL1        0.0191
     24 C         143.8902  132.0551  157.1389 C.ar    1  UNL1        0.0814
     25 N         144.1060  133.5380  157.2051 N.ar    1  UNL1       -0.2422
     26 C         140.4853  144.4401  162.0850 C.3     1  UNL1        0.1054
     27 C         139.9536  144.3543  163.4850 C.3     1  UNL1        0.0634
     28 C         139.7251  144.2645  164.9648 C.3     1  UNL1        0.0164
     29 C         138.2446  144.2462  165.2049 C.3     1  UNL1        0.0014
     30 C         137.5580  144.3247  163.8736 C.3     1  UNL1        0.0014
     31 C         138.6142  144.3915  162.8106 C.3     1  UNL1        0.0164
     32 N         141.4041  144.3350  163.8667 N.3     1  UNL1       -0.2736
     33 C         142.0966  143.2558  164.6450 C.3     1  UNL1        0.0721
     34 C         143.5373  143.6454  164.7964 C.3     1  UNL1        0.0188
     35 C         143.7350  144.9653  164.1118 C.3     1  UNL1        0.0188
     36 C         142.4166  145.3915  163.5372 C.3     1  UNL1        0.0721
@<TRIPOS>BOND
     1     1     2    2
     2     2     3   am
     3     3    26    1
     4    26    27    1
     5    27    32    1
     6    32    33    1
     7    33    34    1
     8    34    35    1
     9    35    36    1
    10    27    28    1
    11    28    29    1
    12    29    30    1
    13    30    31    1
    14     2     4   am
    15     4     5    1
    16     5     6    1
    17     6     7    1
    18     7    11    1
    19    11    12   ar
    20    12    13   ar
    21    13    16    1
    22    16    17   ar
    23    17    18   ar
    24    18    19   ar
    25    19    20   ar
    26    20    21   ar
    27    21    22   ar
    28    22    23   ar
    29    23    24   ar
    30    24    25   ar
    31    13    14   ar
    32    14    15   ar
    33     7     8    1
    34     8     9    1
    35    31    27    1
    36     9     4    1
    37    36    32    1
    38    15    11   ar
    39    25    16   ar
    40    24    19   ar
    41     3    10    1
@<TRIPOS>MOLECULE
*****
 36 41 0 0 0
SMALL
GASTEIGER

@<TRIPOS>ATOM
      1 O         142.1441  139.3732  164.8275 O.2     1  UNL1       -0.2526
      2 C         141.3035  139.6527  163.6170 C.2     1  UNL1        0.3040
      3 N         140.0760  140.5064  163.7370 N.am    1  UNL1       -0.2874
      4 N         141.6905  139.0785  162.2864 N.am    1  UNL1       -0.2642
      5 C         142.9180  138.2249  162.1663 C.3     1  UNL1        0.0954
      6 C         143.3050  137.6507  160.8357 C.3     1  UNL1        0.0309
      7 C         142.4645  137.9302  159.6252 C.3     1  UNL1        0.0827
      8 C         141.2370  138.7839  159.7452 C.3     1  UNL1        0.0309
      9 C         140.8500  139.3580  161.0758 C.3     1  UNL1        0.0954
     10 H         139.5244  140.6898  162.9425 H       1  UNL1        0.1510
     11 C         142.8515  137.3560  158.2946 C.ar    1  UNL1        0.2362
     12 N         142.6686  135.9313  157.8622 N.ar    1  UNL1       -0.1895
     13 C         143.1935  135.8005  156.4631 C.ar    1  UNL1        0.2210
     14 N         143.7007  137.1443  156.0308 N.ar    1  UNL1       -0.0544
     15 O         143.4894  138.1057  157.1626 O.2     1  UNL1       -0.3370
     16 C         143.2084  134.5461  155.6407 C.ar    1  UNL1        0.1202
     17 C         142.4591  134.4914  154.3424 C.ar    1  UNL1        0.0224
     18 C         142.4740  133.2371  153.5201 C.ar    1  UNL1        0.0031
     19 C         143.2383  132.0373  153.9960 C.ar    1  UNL1        0.0177
     20 C         143.2532  130.7829  153.1737 C.ar    1  UNL1        0.0015
     21 C         144.0174  129.5832  153.6496 C.ar    1  UNL1        0.0001
     22 C         144.7667  129.6378  154.9479 C.ar    1  UNL1        0.0015
     23 C         144.7517  130.8921  155.7703 C.ar    1  UNL1        0.0191
     24 C         143.9875  132.0919  155.2943 C.ar    1  UNL1        0.0814
     25 N         143.9726  133.3463  156.1167 N.ar    1  UNL1       -0.2422
     26 C         139.6890  141.0806  165.0677 C.3     1  UNL1        0.1054
     27 C         139.5975  142.5673  165.2450 C.3     1  UNL1        0.0634
     28 C         139.7855  144.0216  165.5609 C.3     1  UNL1        0.0164
     29 C         138.5842  144.7646  165.0563 C.3     1  UNL1        0.0014
     30 C         137.6537  143.7695  164.4286 C.3     1  UNL1        0.0014
     31 C         138.2799  142.4115  164.5452 C.3     1  UNL1        0.0164
     32 N         140.9342  142.4123  165.9077 N.3     1  UNL1       -0.2736
     33 C         142.2539  142.8481  165.3434 C.3     1  UNL1        0.0721
     34 C         143.3212  142.4993  166.3381 C.3     1  UNL1        0.0188
     35 C         142.6611  141.8480  167.5171 C.3     1  UNL1        0.0188
     36 C         141.1859  141.7942  167.2511 C.3     1  UNL1        0.0721
@<TRIPOS>BOND
     1     1     2    2
     2     2     3   am
     3     3    26    1
     4    26    27    1
     5    27    32    1
     6    32    33    1
     7    33    34    1
     8    34    35    1
     9    35    36    1
    10    27    28    1
    11    28    29    1
    12    29    30    1
    13    30    31    1
    14     2     4   am
    15     4     5    1
    16     5     6    1
    17     6     7    1
    18     7    11    1
    19    11    12   ar
    20    12    13   ar
    21    13    16    1
    22    16    17   ar
    23    17    18   ar
    24    18    19   ar
    25    19    20   ar
    26    20    21   ar
    27    21    22   ar
    28    22    23   ar
    29    23    24   ar
    30    24    25   ar
    31    13    14   ar
    32    14    15   ar
    33     7     8    1
    34     8     9    1
    35    31    27    1
    36     9     4    1
    37    36    32    1
    38    15    11   ar
    39    25    16   ar
    40    24    19   ar
    41     3    10    1
@<TRIPOS>MOLECULE
*****
 36 41 0 0 0
SMALL
GASTEIGER

@<TRIPOS>ATOM
      1 O         141.5780  143.5919  165.0429 O.2     1  UNL1       -0.2526
      2 C         141.2407  142.6065  163.9634 C.2     1  UNL1        0.3040
      3 N         141.2162  141.1382  164.2692 N.am    1  UNL1       -0.2874
      4 N         140.9280  143.0894  162.5782 N.am    1  UNL1       -0.2642
      5 C         140.9525  144.5577  162.2724 C.3     1  UNL1        0.0954
      6 C         140.6398  145.0406  160.8871 C.3     1  UNL1        0.0309
      7 C         140.3025  144.0552  159.8076 C.3     1  UNL1        0.0827
      8 C         140.2780  142.5869  160.1134 C.3     1  UNL1        0.0309
      9 C         140.5907  142.1040  161.4987 C.3     1  UNL1        0.0954
     10 H         140.9948  140.4915  163.5607 H       1  UNL1        0.1510
     11 C         139.9898  144.5381  158.4224 C.ar    1  UNL1        0.2362
     12 N         140.1478  145.9433  157.9218 N.ar    1  UNL1       -0.1895
     13 C         139.7198  145.9741  156.4845 C.ar    1  UNL1        0.2210
     14 N         139.2973  144.5881  156.0967 N.ar    1  UNL1       -0.0544
     15 O         139.4642  143.7005  157.2943 O.2     1  UNL1       -0.3370
     16 C         139.7151  147.1796  155.5917 C.ar    1  UNL1        0.1202
     17 C         140.3436  147.1079  154.2316 C.ar    1  UNL1        0.0224
     18 C         140.3389  148.3133  153.3388 C.ar    1  UNL1        0.0031
     19 C         139.7058  149.5903  153.8061 C.ar    1  UNL1        0.0177
     20 C         139.7011  150.7957  152.9133 C.ar    1  UNL1        0.0015
     21 C         139.0679  152.0726  153.3806 C.ar    1  UNL1        0.0001
     22 C         138.4394  152.1443  154.7407 C.ar    1  UNL1        0.0015
     23 C         138.4441  150.9389  155.6335 C.ar    1  UNL1        0.0191
     24 C         139.0772  149.6620  155.1662 C.ar    1  UNL1        0.0814
     25 N         139.0819  148.4565  156.0590 N.ar    1  UNL1       -0.2422
     26 C         141.5289  140.6553  165.6546 C.3     1  UNL1        0.1054
     27 C         140.4164  140.2634  166.5812 C.3     1  UNL1        0.0634
     28 C         139.4517  140.0585  167.7115 C.3     1  UNL1        0.0164
     29 C         138.3807  139.1191  167.2422 C.3     1  UNL1        0.0014
     30 C         138.6833  138.7433  165.8219 C.3     1  UNL1        0.0014
     31 C         139.9415  139.4505  165.4133 C.3     1  UNL1        0.0164
     32 N         141.1239  141.1581  167.5553 N.3     1  UNL1       -0.2736
     33 C         142.5879  141.1246  167.8804 C.3     1  UNL1        0.0721
     34 C         142.8604  142.1892  168.9013 C.3     1  UNL1        0.0188
     35 C         141.5649  142.8807  169.2072 C.3     1  UNL1        0.0188
     36 C         140.4917  142.2434  168.3753 C.3     1  UNL1        0.0721
@<TRIPOS>BOND
     1     1     2    2
     2     2     3   am
     3     3    26    1
     4    26    27    1
     5    27    32    1
     6    32    33    1
     7    33    34    1
     8    34    35    1
     9    35    36    1
    10    27    28    1
    11    28    29    1
    12    29    30    1
    13    30    31    1
    14     2     4   am
    15     4     5    1
    16     5     6    1
    17     6     7    1
    18     7    11    1
    19    11    12   ar
    20    12    13   ar
    21    13    16    1
    22    16    17   ar
    23    17    18   ar
    24    18    19   ar
    25    19    20   ar
    26    20    21   ar
    27    21    22   ar
    28    22    23   ar
    29    23    24   ar
    30    24    25   ar
    31    13    14   ar
    32    14    15   ar
    33     7     8    1
    34     8     9    1
    35    31    27    1
    36     9     4    1
    37    36    32    1
    38    15    11   ar
    39    25    16   ar
    40    24    19   ar
    41     3    10    1
@<TRIPOS>MOLECULE
*****
 36 41 0 0 0
SMALL
GASTEIGER

@<TRIPOS>ATOM
      1 O         143.7223  140.3049  165.1835 O.2     1  UNL1       -0.2526
      2 C         142.5471  140.3323  164.2518 C.2     1  UNL1        0.3040
      3 N         141.2445  140.9222  164.7047 N.am    1  UNL1       -0.2874
      4 N         142.6745  139.7697  162.8671 N.am    1  UNL1       -0.2642
      5 C         143.9771  139.1798  162.4143 C.3     1  UNL1        0.0954
      6 C         144.1046  138.6172  161.0296 C.3     1  UNL1        0.0309
      7 C         142.9293  138.6446  160.0979 C.3     1  UNL1        0.0827
      8 C         141.6267  139.2345  160.5508 C.3     1  UNL1        0.0309
      9 C         141.4993  139.7971  161.9354 C.3     1  UNL1        0.0954
     10 H         140.4731  140.9401  164.0931 H       1  UNL1        0.1510
     11 C         143.0567  138.0820  158.7132 C.ar    1  UNL1        0.2362
     12 N         142.9979  136.6296  158.3427 N.ar    1  UNL1       -0.1895
     13 C         143.1701  136.5231  156.8564 C.ar    1  UNL1        0.2210
     14 N         143.3355  137.9095  156.3084 N.ar    1  UNL1       -0.0544
     15 O         143.2654  138.8730  157.4559 O.2     1  UNL1       -0.3370
     16 C         143.1760  135.2530  156.0584 C.ar    1  UNL1        0.1202
     17 C         142.3935  135.1658  154.7817 C.ar    1  UNL1        0.0224
     18 C         142.3993  133.8958  153.9836 C.ar    1  UNL1        0.0031
     19 C         143.1878  132.7128  154.4623 C.ar    1  UNL1        0.0177
     20 C         143.1936  131.4428  153.6642 C.ar    1  UNL1        0.0015
     21 C         143.9820  130.2599  154.1429 C.ar    1  UNL1        0.0001
     22 C         144.7645  130.3470  155.4197 C.ar    1  UNL1        0.0015
     23 C         144.7587  131.6171  156.2177 C.ar    1  UNL1        0.0191
     24 C         143.9703  132.8000  155.7390 C.ar    1  UNL1        0.0814
     25 N         143.9644  134.0701  156.5371 N.ar    1  UNL1       -0.2422
     26 C         141.1170  141.4848  166.0894 C.3     1  UNL1        0.1054
     27 C         140.2710  140.7822  167.1095 C.3     1  UNL1        0.0634
     28 C         139.6157  140.2191  168.3356 C.3     1  UNL1        0.0164
     29 C         138.4752  139.3505  167.8943 C.3     1  UNL1        0.0014
     30 C         138.4256  139.3769  166.3953 C.3     1  UNL1        0.0014
     31 C         139.5354  140.2617  165.9103 C.3     1  UNL1        0.0164
     32 N         141.1834  141.4496  168.0954 N.3     1  UNL1       -0.2736
     33 C         142.5871  141.0323  168.4201 C.3     1  UNL1        0.0721
     34 C         143.1236  141.9763  169.4551 C.3     1  UNL1        0.0188
     35 C         142.0515  142.9770  169.7699 C.3     1  UNL1        0.0188
     36 C         140.8524  142.6515  168.9296 C.3     1  UNL1        0.0721
@<TRIPOS>BOND
     1     1     2    2
     2     2     3   am
     3     3    26    1
     4    26    27    1
     5    27    32    1
     6    32    33    1
     7    33    34    1
     8    34    35    1
     9    35    36    1
    10    27    28    1
    11    28    29    1
    12    29    30    1
    13    30    31    1
    14     2     4   am
    15     4     5    1
    16     5     6    1
    17     6     7    1
    18     7    11    1
    19    11    12   ar
    20    12    13   ar
    21    13    16    1
    22    16    17   ar
    23    17    18   ar
    24    18    19   ar
    25    19    20   ar
    26    20    21   ar
    27    21    22   ar
    28    22    23   ar
    29    23    24   ar
    30    24    25   ar
    31    13    14   ar
    32    14    15   ar
    33     7     8    1
    34     8     9    1
    35    31    27    1
    36     9     4    1
    37    36    32    1
    38    15    11   ar
    39    25    16   ar
    40    24    19   ar
    41     3    10    1
@<TRIPOS>MOLECULE
*****
 36 41 0 0 0
SMALL
GASTEIGER

@<TRIPOS>ATOM
      1 O         140.3767  143.1820  161.7898 O.2     1  UNL1       -0.2526
      2 C         141.4490  142.1799  162.0998 C.2     1  UNL1        0.3040
      3 N         142.1659  142.2315  163.4163 N.am    1  UNL1       -0.2874
      4 N         141.8043  141.1261  161.0932 N.am    1  UNL1       -0.2642
      5 C         141.0874  141.0745  159.7766 C.3     1  UNL1        0.0954
      6 C         141.4427  140.0207  158.7700 C.3     1  UNL1        0.0309
      7 C         142.5150  139.0186  159.0800 C.3     1  UNL1        0.0827
      8 C         143.2319  139.0702  160.3965 C.3     1  UNL1        0.0309
      9 C         142.8766  140.1240  161.4031 C.3     1  UNL1        0.0954
     10 H         142.8696  141.5738  163.6198 H       1  UNL1        0.1510
     11 C         142.8703  137.9648  158.0734 C.ar    1  UNL1        0.2362
     12 N         142.4990  136.5133  158.1479 N.ar    1  UNL1       -0.1895
     13 C         143.0586  135.8290  156.9361 C.ar    1  UNL1        0.2210
     14 N         143.7757  136.8574  156.1126 N.ar    1  UNL1       -0.0544
     15 O         143.6593  138.1774  156.8155 O.2     1  UNL1       -0.3370
     16 C         142.9245  134.3719  156.6057 C.ar    1  UNL1        0.1202
     17 C         141.9225  133.9237  155.5834 C.ar    1  UNL1        0.0224
     18 C         141.7884  132.4668  155.2531 C.ar    1  UNL1        0.0031
     19 C         142.6564  131.4578  155.9451 C.ar    1  UNL1        0.0177
     20 C         142.5223  130.0008  155.6147 C.ar    1  UNL1        0.0015
     21 C         143.3902  128.9920  156.3067 C.ar    1  UNL1        0.0001
     22 C         144.3922  129.4401  157.3290 C.ar    1  UNL1        0.0015
     23 C         144.5263  130.8971  157.6593 C.ar    1  UNL1        0.0191
     24 C         143.6584  131.9060  156.9674 C.ar    1  UNL1        0.0814
     25 N         143.7924  133.3630  157.2977 N.ar    1  UNL1       -0.2422
     26 C         141.8106  143.2854  164.4230 C.3     1  UNL1        0.1054
     27 C         141.3702  142.8883  165.8008 C.3     1  UNL1        0.0634
     28 C         140.6424  142.5492  167.0678 C.3     1  UNL1        0.0164
     29 C         141.6600  142.1453  168.0931 C.3     1  UNL1        0.0014
     30 C         143.0168  142.2347  167.4598 C.3     1  UNL1        0.0014
     31 C         142.8378  142.6939  166.0431 C.3     1  UNL1        0.0164
     32 N         139.9948  143.1657  165.2705 N.3     1  UNL1       -0.2736
     33 C         138.9367  142.1415  164.9853 C.3     1  UNL1        0.0721
     34 C         137.7239  142.8588  164.4708 C.3     1  UNL1        0.0188
     35 C         138.0325  144.3264  164.4381 C.3     1  UNL1        0.0188
     36 C         139.4360  144.5160  164.9323 C.3     1  UNL1        0.0721
@<TRIPOS>BOND
     1     1     2    2
     2     2     3   am
     3     3    26    1
     4    26    27    1
     5    27    32    1
     6    32    33    1
     7    33    34    1
     8    34    35    1
     9    35    36    1
    10    27    28    1
    11    28    29    1
    12    29    30    1
    13    30    31    1
    14     2     4   am
    15     4     5    1
    16     5     6    1
    17     6     7    1
    18     7    11    1
    19    11    12   ar
    20    12    13   ar
    21    13    16    1
    22    16    17   ar
    23    17    18   ar
    24    18    19   ar
    25    19    20   ar
    26    20    21   ar
    27    21    22   ar
    28    22    23   ar
    29    23    24   ar
    30    24    25   ar
    31    13    14   ar
    32    14    15   ar
    33     7     8    1
    34     8     9    1
    35    31    27    1
    36     9     4    1
    37    36    32    1
    38    15    11   ar
    39    25    16   ar
    40    24    19   ar
    41     3    10    1
@<TRIPOS>MOLECULE
*****
 36 41 0 0 0
SMALL
GASTEIGER

@<TRIPOS>ATOM
      1 O         139.3834  141.0228  161.8758 O.2     1  UNL1       -0.2526
      2 C         140.8530  140.7376  161.7808 C.2     1  UNL1        0.3040
      3 N         141.7954  141.3107  162.7973 N.am    1  UNL1       -0.2874
      4 N         141.3801  139.8794  160.6693 N.am    1  UNL1       -0.2642
      5 C         140.4377  139.3063  159.6527 C.3     1  UNL1        0.0954
      6 C         140.9648  138.4481  158.5412 C.3     1  UNL1        0.0309
      7 C         142.4344  138.1629  158.4462 C.3     1  UNL1        0.0827
      8 C         143.3769  138.7359  159.4628 C.3     1  UNL1        0.0309
      9 C         142.8497  139.5942  160.5743 C.3     1  UNL1        0.0954
     10 H         142.7599  141.1235  162.7350 H       1  UNL1        0.1510
     11 C         142.9616  137.3046  157.3347 C.ar    1  UNL1        0.2362
     12 N         142.5780  135.8801  157.0628 N.ar    1  UNL1       -0.1895
     13 C         143.3442  135.4154  155.8600 C.ar    1  UNL1        0.2210
     14 N         144.2013  136.5525  155.3885 N.ar    1  UNL1       -0.0544
     15 O         143.9649  137.7201  156.2999 O.2     1  UNL1       -0.3370
     16 C         143.2669  134.0526  155.2378 C.ar    1  UNL1        0.1202
     17 C         142.3412  133.8066  154.0835 C.ar    1  UNL1        0.0224
     18 C         142.2638  132.4439  153.4614 C.ar    1  UNL1        0.0031
     19 C         143.1122  131.3271  153.9936 C.ar    1  UNL1        0.0177
     20 C         143.0348  129.9644  153.3715 C.ar    1  UNL1        0.0015
     21 C         143.8831  128.8478  153.9038 C.ar    1  UNL1        0.0001
     22 C         144.8089  129.0938  155.0581 C.ar    1  UNL1        0.0015
     23 C         144.8863  130.4565  155.6802 C.ar    1  UNL1        0.0191
     24 C         144.0379  131.5732  155.1480 C.ar    1  UNL1        0.0814
     25 N         144.1152  132.9359  155.7701 N.ar    1  UNL1       -0.2422
     26 C         141.2683  142.1690  163.9090 C.3     1  UNL1        0.1054
     27 C         141.6020  143.6308  163.9506 C.3     1  UNL1        0.0634
     28 C         141.6247  145.1303  163.9795 C.3     1  UNL1        0.0164
     29 C         143.0568  145.5709  164.0497 C.3     1  UNL1        0.0014
     30 C         143.9192  144.3437  164.0642 C.3     1  UNL1        0.0014
     31 C         143.0201  143.1446  164.0029 C.3     1  UNL1        0.0164
     32 N         140.1141  143.8113  163.8896 N.3     1  UNL1       -0.2736
     33 C         139.3399  144.3636  162.7296 C.3     1  UNL1        0.0721
     34 C         137.8865  144.3648  163.1009 C.3     1  UNL1        0.0188
     35 C         137.7626  143.8133  164.4903 C.3     1  UNL1        0.0188
     36 C         139.1393  143.4712  164.9778 C.3     1  UNL1        0.0721
@<TRIPOS>BOND
     1     1     2    2
     2     2     3   am
     3     3    26    1
     4    26    27    1
     5    27    32    1
     6    32    33    1
     7    33    34    1
     8    34    35    1
     9    35    36    1
    10    27    28    1
    11    28    29    1
    12    29    30    1
    13    30    31    1
    14     2     4   am
    15     4     5    1
    16     5     6    1
    17     6     7    1
    18     7    11    1
    19    11    12   ar
    20    12    13   ar
    21    13    16    1
    22    16    17   ar
    23    17    18   ar
    24    18    19   ar
    25    19    20   ar
    26    20    21   ar
    27    21    22   ar
    28    22    23   ar
    29    23    24   ar
    30    24    25   ar
    31    13    14   ar
    32    14    15   ar
    33     7     8    1
    34     8     9    1
    35    31    27    1
    36     9     4    1
    37    36    32    1
    38    15    11   ar
    39    25    16   ar
    40    24    19   ar
    41     3    10    1
@<TRIPOS>MOLECULE
*****
 36 41 0 0 0
SMALL
GASTEIGER

@<TRIPOS>ATOM
      1 O         139.2677  142.2746  159.4328 O.2     1  UNL1       -0.2526
      2 C         140.6281  141.7747  159.8198 C.2     1  UNL1        0.3040
      3 N         141.4233  142.4980  160.8660 N.am    1  UNL1       -0.2874
      4 N         141.1931  140.5516  159.1606 N.am    1  UNL1       -0.2642
      5 C         140.3979  139.8283  158.1144 C.3     1  UNL1        0.0954
      6 C         140.9630  138.6052  157.4552 C.3     1  UNL1        0.0309
      7 C         142.3233  138.1053  157.8422 C.3     1  UNL1        0.0827
      8 C         143.1185  138.8286  158.8884 C.3     1  UNL1        0.0309
      9 C         142.5535  140.0517  159.5476 C.3     1  UNL1        0.0954
     10 H         142.3161  142.1699  161.1199 H       1  UNL1        0.1510
     11 C         142.8884  136.8822  157.1830 C.ar    1  UNL1        0.2362
     12 N         142.8732  135.4912  157.7445 N.ar    1  UNL1       -0.1895
     13 C         143.5433  134.5846  156.7550 C.ar    1  UNL1        0.2210
     14 N         143.9727  135.4152  155.5821 N.ar    1  UNL1       -0.0544
     15 O         143.5680  136.8351  155.8465 O.2     1  UNL1       -0.3370
     16 C         143.7481  133.1068  156.9111 C.ar    1  UNL1        0.1202
     17 C         144.8494  132.5910  157.7891 C.ar    1  UNL1        0.0224
     18 C         145.0542  131.1133  157.9453 C.ar    1  UNL1        0.0031
     19 C         144.1576  130.1514  157.2235 C.ar    1  UNL1        0.0177
     20 C         144.3624  128.6737  157.3796 C.ar    1  UNL1        0.0015
     21 C         143.4659  127.7119  156.6578 C.ar    1  UNL1        0.0001
     22 C         142.3645  128.2278  155.7798 C.ar    1  UNL1        0.0015
     23 C         142.1597  129.7055  155.6237 C.ar    1  UNL1        0.0191
     24 C         143.0563  130.6673  156.3455 C.ar    1  UNL1        0.0814
     25 N         142.8515  132.1450  156.1893 N.ar    1  UNL1       -0.2422
     26 C         140.8582  143.7212  161.5252 C.3     1  UNL1        0.1054
     27 C         141.5404  144.3097  162.7245 C.3     1  UNL1        0.0634
     28 C         141.9325  144.9097  164.0422 C.3     1  UNL1        0.0164
     29 C         143.4199  145.1029  164.0393 C.3     1  UNL1        0.0014
     30 C         143.9472  144.6223  162.7198 C.3     1  UNL1        0.0014
     31 C         142.7856  144.1321  161.9071 C.3     1  UNL1        0.0164
     32 N         140.1526  144.3643  163.2911 N.3     1  UNL1       -0.2736
     33 C         139.7972  144.4670  164.7447 C.3     1  UNL1        0.0721
     34 C         138.3014  144.4919  164.8555 C.3     1  UNL1        0.0188
     35 C         137.7325  144.4045  163.4704 C.3     1  UNL1        0.0188
     36 C         138.8765  144.3257  162.5035 C.3     1  UNL1        0.0721
@<TRIPOS>BOND
     1     1     2    2
     2     2     3   am
     3     3    26    1
     4    26    27    1
     5    27    32    1
     6    32    33    1
     7    33    34    1
     8    34    35    1
     9    35    36    1
    10    27    28    1
    11    28    29    1
    12    29    30    1
    13    30    31    1
    14     2     4   am
    15     4     5    1
    16     5     6    1
    17     6     7    1
    18     7    11    1
    19    11    12   ar
    20    12    13   ar
    21    13    16    1
    22    16    17   ar
    23    17    18   ar
    24    18    19   ar
    25    19    20   ar
    26    20    21   ar
    27    21    22   ar
    28    22    23   ar
    29    23    24   ar
    30    24    25   ar
    31    13    14   ar
    32    14    15   ar
    33     7     8    1
    34     8     9    1
    35    31    27    1
    36     9     4    1
    37    36    32    1
    38    15    11   ar
    39    25    16   ar
    40    24    19   ar
    41     3    10    1
@<TRIPOS>MOLECULE
*****
 36 41 0 0 0
SMALL
GASTEIGER

@<TRIPOS>ATOM
      1 O         142.8733  138.9354  165.6168 O.2     1  UNL1       -0.2526
      2 C         142.3445  140.0141  164.7186 C.2     1  UNL1        0.3040
      3 N         141.3942  141.0412  165.2590 N.am    1  UNL1       -0.2874
      4 N         142.7660  140.0658  163.2800 N.am    1  UNL1       -0.2642
      5 C         143.7163  139.0387  162.7396 C.3     1  UNL1        0.0954
      6 C         144.1378  139.0904  161.3009 C.3     1  UNL1        0.0309
      7 C         143.6090  140.1692  160.4027 C.3     1  UNL1        0.0827
      8 C         142.6587  141.1962  160.9432 C.3     1  UNL1        0.0309
      9 C         142.2372  141.1445  162.3818 C.3     1  UNL1        0.0954
     10 H         141.0472  141.7492  164.6695 H       1  UNL1        0.1510
     11 C         144.0305  140.2208  158.9641 C.ar    1  UNL1        0.2362
     12 N         144.9475  141.2367  158.3499 N.ar    1  UNL1       -0.1895
     13 C         145.0927  140.9094  156.8933 C.ar    1  UNL1        0.2210
     14 N         144.2654  139.6913  156.6072 N.ar    1  UNL1       -0.0544
     15 O         143.6089  139.2657  157.8870 O.2     1  UNL1       -0.3370
     16 C         145.9200  141.6672  155.8976 C.ar    1  UNL1        0.1202
     17 C         145.2796  142.7084  155.0282 C.ar    1  UNL1        0.0224
     18 C         146.1068  143.4662  154.0325 C.ar    1  UNL1        0.0031
     19 C         147.5744  143.1829  153.9062 C.ar    1  UNL1        0.0177
     20 C         148.4016  143.9407  152.9105 C.ar    1  UNL1        0.0015
     21 C         149.8691  143.6574  152.7843 C.ar    1  UNL1        0.0001
     22 C         150.5095  142.6162  153.6537 C.ar    1  UNL1        0.0015
     23 C         149.6823  141.8584  154.6494 C.ar    1  UNL1        0.0191
     24 C         148.2148  142.1417  154.7756 C.ar    1  UNL1        0.0814
     25 N         147.3875  141.3839  155.7713 N.ar    1  UNL1       -0.2422
     26 C         140.9727  140.9895  166.6977 C.3     1  UNL1        0.1054
     27 C         139.8003  140.1477  167.1060 C.3     1  UNL1        0.0634
     28 C         138.7611  139.3163  167.7979 C.3     1  UNL1        0.0164
     29 C         137.7267  138.9285  166.7832 C.3     1  UNL1        0.0014
     30 C         138.1266  139.5202  165.4641 C.3     1  UNL1        0.0014
     31 C         139.4082  140.2737  165.6636 C.3     1  UNL1        0.0164
     32 N         140.4375  140.1976  168.4630 N.3     1  UNL1       -0.2736
     33 C         139.7649  140.6119  169.7381 C.3     1  UNL1        0.0721
     34 C         140.7709  140.5124  170.8463 C.3     1  UNL1        0.0188
     35 C         142.0653  140.0367  170.2561 C.3     1  UNL1        0.0188
     36 C         141.8592  139.8422  168.7831 C.3     1  UNL1        0.0721
@<TRIPOS>BOND
     1     1     2    2
     2     2     3   am
     3     3    26    1
     4    26    27    1
     5    27    32    1
     6    32    33    1
     7    33    34    1
     8    34    35    1
     9    35    36    1
    10    27    28    1
    11    28    29    1
    12    29    30    1
    13    30    31    1
    14     2     4   am
    15     4     5    1
    16     5     6    1
    17     6     7    1
    18     7    11    1
    19    11    12   ar
    20    12    13   ar
    21    13    16    1
    22    16    17   ar
    23    17    18   ar
    24    18    19   ar
    25    19    20   ar
    26    20    21   ar
    27    21    22   ar
    28    22    23   ar
    29    23    24   ar
    30    24    25   ar
    31    13    14   ar
    32    14    15   ar
    33     7     8    1
    34     8     9    1
    35    31    27    1
    36     9     4    1
    37    36    32    1
    38    15    11   ar
    39    25    16   ar
    40    24    19   ar
    41     3    10    1
@<TRIPOS>MOLECULE
*****
 36 41 0 0 0
SMALL
GASTEIGER

@<TRIPOS>ATOM
      1 O         138.7755  142.6236  161.3709 O.2     1  UNL1       -0.2526
      2 C         138.8150  141.1257  161.4381 C.2     1  UNL1        0.3040
      3 N         138.4671  140.4228  162.7168 N.am    1  UNL1       -0.2874
      4 N         139.2025  140.3305  160.2267 N.am    1  UNL1       -0.2642
      5 C         139.5504  141.0333  158.9480 C.3     1  UNL1        0.0954
      6 C         139.9379  140.2382  157.7366 C.3     1  UNL1        0.0309
      7 C         139.9774  138.7402  157.8039 C.3     1  UNL1        0.0827
      8 C         139.6295  138.0373  159.0825 C.3     1  UNL1        0.0309
      9 C         139.2420  138.8325  160.2939 C.3     1  UNL1        0.0954
     10 H         138.4930  139.4397  162.7609 H       1  UNL1        0.1510
     11 C         140.3648  137.9450  156.5924 C.ar    1  UNL1        0.2362
     12 N         140.9614  136.5686  156.5949 N.ar    1  UNL1       -0.1895
     13 C         141.1890  136.1596  155.1698 C.ar    1  UNL1        0.2210
     14 N         140.7332  137.2831  154.2866 N.ar    1  UNL1       -0.0544
     15 O         140.2238  138.3865  155.1658 O.2     1  UNL1       -0.3370
     16 C         141.7704  134.8559  154.7089 C.ar    1  UNL1        0.1202
     17 C         141.4378  134.3268  153.3452 C.ar    1  UNL1        0.0224
     18 C         142.0192  133.0231  152.8843 C.ar    1  UNL1        0.0031
     19 C         142.9331  132.2485  153.7870 C.ar    1  UNL1        0.0177
     20 C         143.5144  130.9449  153.3261 C.ar    1  UNL1        0.0015
     21 C         144.4283  130.1704  154.2287 C.ar    1  UNL1        0.0001
     22 C         144.7609  130.6995  155.5923 C.ar    1  UNL1        0.0015
     23 C         144.1796  132.0031  156.0533 C.ar    1  UNL1        0.0191
     24 C         143.2657  132.7777  155.1506 C.ar    1  UNL1        0.0814
     25 N         142.6843  134.0814  155.6115 N.ar    1  UNL1       -0.2422
     26 C         138.0796  141.2180  163.9283 C.3     1  UNL1        0.1054
     27 C         138.8506  141.0625  165.2056 C.3     1  UNL1        0.0634
     28 C         139.7430  141.1854  166.4049 C.3     1  UNL1        0.0164
     29 C         139.5524  139.9621  167.2518 C.3     1  UNL1        0.0014
     30 C         138.5422  139.0832  166.5758 C.3     1  UNL1        0.0014
     31 C         138.1084  139.7632  165.3112 C.3     1  UNL1        0.0164
     32 N         139.4315  142.3943  164.8329 N.3     1  UNL1       -0.2736
     33 C         138.6856  143.6940  164.7661 C.3     1  UNL1        0.0721
     34 C         139.6535  144.7631  164.3535 C.3     1  UNL1        0.0188
     35 C         140.9975  144.1242  164.1654 C.3     1  UNL1        0.0188
     36 C         140.8604  142.6602  164.4617 C.3     1  UNL1        0.0721
@<TRIPOS>BOND
     1     1     2    2
     2     2     3   am
     3     3    26    1
     4    26    27    1
     5    27    32    1
     6    32    33    1
     7    33    34    1
     8    34    35    1
     9    35    36    1
    10    27    28    1
    11    28    29    1
    12    29    30    1
    13    30    31    1
    14     2     4   am
    15     4     5    1
    16     5     6    1
    17     6     7    1
    18     7    11    1
    19    11    12   ar
    20    12    13   ar
    21    13    16    1
    22    16    17   ar
    23    17    18   ar
    24    18    19   ar
    25    19    20   ar
    26    20    21   ar
    27    21    22   ar
    28    22    23   ar
    29    23    24   ar
    30    24    25   ar
    31    13    14   ar
    32    14    15   ar
    33     7     8    1
    34     8     9    1
    35    31    27    1
    36     9     4    1
    37    36    32    1
    38    15    11   ar
    39    25    16   ar
    40    24    19   ar
    41     3    10    1
