@<TRIPOS>MOLECULE
*****
 29 33 0 0 0
SMALL
GASTEIGER

@<TRIPOS>ATOM
      1 C         141.2874  139.0736  165.0075 C.ar    1  UNL1        0.0681
      2 C         140.4036  137.8870  164.7608 C.ar    1  UNL1        0.0208
      3 C         140.1415  137.4258  163.3577 C.ar    1  UNL1        0.0384
      4 C         140.7632  138.1513  162.2014 C.ar    1  UNL1        0.1385
      5 C         141.6470  139.3379  162.4481 C.ar    1  UNL1        0.0384
      6 C         141.9091  139.7990  163.8512 C.ar    1  UNL1        0.0208
      7 C         143.7166  138.1031  166.4762 C.3     1  UNL1        0.0723
      8 C         142.7640  139.0495  167.1450 C.ar    1  UNL1        0.1268
      9 N         143.0261  139.5106  168.5481 N.ar    1  UNL1       -0.2318
     10 C         142.0736  140.4569  169.2169 C.ar    1  UNL1        0.0872
     11 C         142.3357  140.9180  170.6200 C.ar    1  UNL1        0.0193
     12 C         141.3832  141.8643  171.2887 C.ar    1  UNL1        0.0015
     13 C         140.1686  142.3495  170.5543 C.ar    1  UNL1        0.0003
     14 C         139.9065  141.8884  169.1512 C.ar    1  UNL1        0.0063
     15 C         140.8590  140.9421  168.4825 C.ar    1  UNL1        0.0742
     16 C         140.5969  140.4810  167.0793 C.ar    1  UNL1        0.2669
     17 O         139.3823  140.9662  166.3450 O.2     1  UNL1       -0.2665
     18 N         141.5494  139.5347  166.4106 N.ar    1  UNL1       -0.2626
     19 O         140.5011  137.6902  160.7982 O.3     1  UNL1       -0.4791
     20 C         139.7102  138.5534  159.8605 C.3     1  UNL1        0.1687
     21 C         138.5699  139.3774  160.3811 C.3     1  UNL1        0.0609
     22 C         137.7790  140.2406  159.4434 C.3     1  UNL1        0.0758
     23 N         138.1283  140.2798  157.9851 N.3     1  UNL1       -0.2737
     24 C         139.2685  139.4558  157.4646 C.3     1  UNL1        0.0758
     25 C         140.0595  138.5926  158.4023 C.3     1  UNL1        0.0609
     26 C         137.3374  141.1430  157.0474 C.3     1  UNL1        0.0575
     27 C         137.3971  142.5807  156.6238 C.3     1  UNL1        0.0160
     28 C         136.2188  142.3637  155.7212 C.3     1  UNL1        0.0028
     29 C         136.1592  140.9260  156.1447 C.3     1  UNL1        0.0160
@<TRIPOS>BOND
     1     7     8    1
     2     8     9   ar
     3     9    10   ar
     4    10    11   ar
     5    11    12   ar
     6    12    13   ar
     7    13    14   ar
     8    14    15   ar
     9    15    16   ar
    10    16    17    2
    11    16    18   ar
    12    18     1    1
    13     1     2   ar
    14     2     3   ar
    15     3     4   ar
    16     4    19    1
    17    19    20    1
    18    20    21    1
    19    21    22    1
    20    22    23    1
    21    23    26    1
    22    26    27    1
    23    27    28    1
    24    28    29    1
    25    23    24    1
    26    24    25    1
    27     4     5   ar
    28     5     6   ar
    29    18     8   ar
    30     6     1   ar
    31    15    10   ar
    32    25    20    1
    33    29    26    1
@<TRIPOS>MOLECULE
*****
 29 33 0 0 0
SMALL
GASTEIGER

@<TRIPOS>ATOM
      1 C         138.9985  140.6129  164.8056 C.ar    1  UNL1        0.0681
      2 C         139.8283  139.8045  163.8527 C.ar    1  UNL1        0.0208
      3 C         139.4869  139.7838  162.3923 C.ar    1  UNL1        0.0384
      4 C         138.3156  140.5715  161.8847 C.ar    1  UNL1        0.1385
      5 C         137.4858  141.3799  162.8376 C.ar    1  UNL1        0.0384
      6 C         137.8273  141.4006  164.2980 C.ar    1  UNL1        0.0208
      7 C         137.9032  138.5001  166.6321 C.3     1  UNL1        0.0723
      8 C         138.7924  139.5771  167.1794 C.ar    1  UNL1        0.1268
      9 N         139.1338  139.5977  168.6398 N.ar    1  UNL1       -0.2318
     10 C         140.0230  140.6748  169.1870 C.ar    1  UNL1        0.0872
     11 C         140.3645  140.6954  170.6475 C.ar    1  UNL1        0.0193
     12 C         141.2536  141.7724  171.1946 C.ar    1  UNL1        0.0015
     13 C         141.8013  142.8288  170.2814 C.ar    1  UNL1        0.0003
     14 C         141.4598  142.8082  168.8209 C.ar    1  UNL1        0.0063
     15 C         140.5707  141.7312  168.2738 C.ar    1  UNL1        0.0742
     16 C         140.2292  141.7105  166.8133 C.ar    1  UNL1        0.2669
     17 O         140.7769  142.7669  165.9000 O.2     1  UNL1       -0.2665
     18 N         139.3400  140.6335  166.2661 N.ar    1  UNL1       -0.2626
     19 O         137.9741  140.5509  160.4242 O.3     1  UNL1       -0.4791
     20 C         138.4682  141.6434  159.5229 C.3     1  UNL1        0.1687
     21 C         138.0647  141.6639  158.0783 C.3     1  UNL1        0.0609
     22 C         138.5588  142.7564  157.1770 C.3     1  UNL1        0.0758
     23 N         139.4565  143.8284  157.7204 N.3     1  UNL1       -0.2737
     24 C         139.8600  143.8078  159.1649 C.3     1  UNL1        0.0758
     25 C         139.3658  142.7153  160.0662 C.3     1  UNL1        0.0609
     26 C         139.9506  144.9209  156.8191 C.3     1  UNL1        0.0575
     27 C         139.9245  146.4203  156.8570 C.3     1  UNL1        0.0160
     28 C         140.6494  146.4660  155.5446 C.3     1  UNL1        0.0028
     29 C         140.6754  144.9667  155.5067 C.3     1  UNL1        0.0160
@<TRIPOS>BOND
     1     7     8    1
     2     8     9   ar
     3     9    10   ar
     4    10    11   ar
     5    11    12   ar
     6    12    13   ar
     7    13    14   ar
     8    14    15   ar
     9    15    16   ar
    10    16    17    2
    11    16    18   ar
    12    18     1    1
    13     1     2   ar
    14     2     3   ar
    15     3     4   ar
    16     4    19    1
    17    19    20    1
    18    20    21    1
    19    21    22    1
    20    22    23    1
    21    23    26    1
    22    26    27    1
    23    27    28    1
    24    28    29    1
    25    23    24    1
    26    24    25    1
    27     4     5   ar
    28     5     6   ar
    29    18     8   ar
    30     6     1   ar
    31    15    10   ar
    32    25    20    1
    33    29    26    1
@<TRIPOS>MOLECULE
*****
 29 33 0 0 0
SMALL
GASTEIGER

@<TRIPOS>ATOM
      1 C         141.7235  138.7708  161.6118 C.ar    1  UNL1        0.0681
      2 C         142.8452  137.7882  161.4492 C.ar    1  UNL1        0.0208
      3 C         143.3007  137.3905  160.0765 C.ar    1  UNL1        0.0384
      4 C         142.6345  137.9753  158.8665 C.ar    1  UNL1        0.1385
      5 C         141.5128  138.9578  159.0291 C.ar    1  UNL1        0.0384
      6 C         141.0573  139.3555  160.4018 C.ar    1  UNL1        0.0208
      7 C         143.1720  140.9320  163.1054 C.3     1  UNL1        0.0723
      8 C         141.9922  140.2491  163.7314 C.ar    1  UNL1        0.1268
      9 N         141.5367  140.6468  165.1040 N.ar    1  UNL1       -0.2318
     10 C         140.3570  139.9639  165.7300 C.ar    1  UNL1        0.0872
     11 C         139.9015  140.3616  167.1027 C.ar    1  UNL1        0.0193
     12 C         138.7218  139.6787  167.7286 C.ar    1  UNL1        0.0015
     13 C         137.9975  138.5981  166.9819 C.ar    1  UNL1        0.0003
     14 C         138.4529  138.2004  165.6092 C.ar    1  UNL1        0.0063
     15 C         139.6327  138.8833  164.9833 C.ar    1  UNL1        0.0742
     16 C         140.0882  138.4856  163.6105 C.ar    1  UNL1        0.2669
     17 O         139.3639  137.4049  162.8637 O.2     1  UNL1       -0.2665
     18 N         141.2679  139.1685  162.9846 N.ar    1  UNL1       -0.2626
     19 O         143.0900  137.5776  157.4937 O.3     1  UNL1       -0.4791
     20 C         142.7254  136.2307  156.9434 C.3     1  UNL1        0.1687
     21 C         143.4405  135.0041  157.4274 C.3     1  UNL1        0.0609
     22 C         143.0759  133.6572  156.8771 C.3     1  UNL1        0.0758
     23 N         141.9961  133.5368  155.8428 N.3     1  UNL1       -0.2737
     24 C         141.2810  134.7634  155.3589 C.3     1  UNL1        0.0758
     25 C         141.6457  136.1103  155.9092 C.3     1  UNL1        0.0609
     26 C         141.6314  132.1899  155.2925 C.3     1  UNL1        0.0575
     27 C         142.0198  130.7754  155.6063 C.3     1  UNL1        0.0160
     28 C         141.1158  130.2851  154.5143 C.3     1  UNL1        0.0028
     29 C         140.7275  131.6995  154.2006 C.3     1  UNL1        0.0160
@<TRIPOS>BOND
     1     7     8    1
     2     8     9   ar
     3     9    10   ar
     4    10    11   ar
     5    11    12   ar
     6    12    13   ar
     7    13    14   ar
     8    14    15   ar
     9    15    16   ar
    10    16    17    2
    11    16    18   ar
    12    18     1    1
    13     1     2   ar
    14     2     3   ar
    15     3     4   ar
    16     4    19    1
    17    19    20    1
    18    20    21    1
    19    21    22    1
    20    22    23    1
    21    23    26    1
    22    26    27    1
    23    27    28    1
    24    28    29    1
    25    23    24    1
    26    24    25    1
    27     4     5   ar
    28     5     6   ar
    29    18     8   ar
    30     6     1   ar
    31    15    10   ar
    32    25    20    1
    33    29    26    1
@<TRIPOS>MOLECULE
*****
 29 33 0 0 0
SMALL
GASTEIGER

@<TRIPOS>ATOM
      1 C         140.2620  139.2344  164.5176 C.ar    1  UNL1        0.0681
      2 C         141.1974  138.0924  164.2516 C.ar    1  UNL1        0.0208
      3 C         141.3977  137.5979  162.8497 C.ar    1  UNL1        0.0384
      4 C         140.6626  138.2454  161.7138 C.ar    1  UNL1        0.1385
      5 C         139.7271  139.3874  161.9798 C.ar    1  UNL1        0.0384
      6 C         139.5268  139.8819  163.3817 C.ar    1  UNL1        0.0208
      7 C         138.1417  138.0103  166.2513 C.3     1  UNL1        0.0723
      8 C         139.0016  139.1168  166.7864 C.ar    1  UNL1        0.1268
      9 N         138.8013  139.6112  168.1883 N.ar    1  UNL1       -0.2318
     10 C         139.6611  140.7178  168.7234 C.ar    1  UNL1        0.0872
     11 C         139.4608  141.2122  170.1253 C.ar    1  UNL1        0.0193
     12 C         140.3207  142.3187  170.6604 C.ar    1  UNL1        0.0015
     13 C         141.3808  142.9308  169.7935 C.ar    1  UNL1        0.0003
     14 C         141.5811  142.4363  168.3916 C.ar    1  UNL1        0.0063
     15 C         140.7213  141.3298  167.8566 C.ar    1  UNL1        0.0742
     16 C         140.9216  140.8354  166.4546 C.ar    1  UNL1        0.2669
     17 O         141.9817  141.4474  165.5877 O.2     1  UNL1       -0.2665
     18 N         140.0617  139.7289  165.9196 N.ar    1  UNL1       -0.2626
     19 O         140.8629  137.7510  160.3119 O.3     1  UNL1       -0.4791
     20 C         141.8731  138.4110  159.4209 C.3     1  UNL1        0.1687
     21 C         142.0045  137.9822  157.9895 C.3     1  UNL1        0.0609
     22 C         143.0148  138.6422  157.0986 C.3     1  UNL1        0.0758
     23 N         143.8936  139.7312  157.6391 N.3     1  UNL1       -0.2737
     24 C         143.7621  140.1599  159.0704 C.3     1  UNL1        0.0758
     25 C         142.7519  139.4999  159.9613 C.3     1  UNL1        0.0609
     26 C         144.9038  140.3912  156.7481 C.3     1  UNL1        0.0575
     27 C         145.5075  140.0743  155.4120 C.3     1  UNL1        0.0160
     28 C         146.3325  141.3247  155.4882 C.3     1  UNL1        0.0028
     29 C         145.7289  141.6416  156.8242 C.3     1  UNL1        0.0160
@<TRIPOS>BOND
     1     7     8    1
     2     8     9   ar
     3     9    10   ar
     4    10    11   ar
     5    11    12   ar
     6    12    13   ar
     7    13    14   ar
     8    14    15   ar
     9    15    16   ar
    10    16    17    2
    11    16    18   ar
    12    18     1    1
    13     1     2   ar
    14     2     3   ar
    15     3     4   ar
    16     4    19    1
    17    19    20    1
    18    20    21    1
    19    21    22    1
    20    22    23    1
    21    23    26    1
    22    26    27    1
    23    27    28    1
    24    28    29    1
    25    23    24    1
    26    24    25    1
    27     4     5   ar
    28     5     6   ar
    29    18     8   ar
    30     6     1   ar
    31    15    10   ar
    32    25    20    1
    33    29    26    1
@<TRIPOS>MOLECULE
*****
 29 33 0 0 0
SMALL
GASTEIGER

@<TRIPOS>ATOM
      1 C         139.8417  139.2560  164.8747 C.ar    1  UNL1        0.0681
      2 C         140.2180  137.8795  164.4124 C.ar    1  UNL1        0.0208
      3 C         140.0234  137.4912  162.9767 C.ar    1  UNL1        0.0384
      4 C         139.4525  138.4793  162.0033 C.ar    1  UNL1        0.1385
      5 C         139.0763  139.8558  162.4655 C.ar    1  UNL1        0.0384
      6 C         139.2709  140.2442  163.9012 C.ar    1  UNL1        0.0208
      7 C         137.7009  138.6653  166.8916 C.3     1  UNL1        0.0723
      8 C         138.9659  139.3490  167.3189 C.ar    1  UNL1        0.1268
      9 N         139.1605  139.7373  168.7547 N.ar    1  UNL1       -0.2318
     10 C         140.4255  140.4209  169.1820 C.ar    1  UNL1        0.0872
     11 C         140.6200  140.8092  170.6177 C.ar    1  UNL1        0.0193
     12 C         141.8850  141.4927  171.0449 C.ar    1  UNL1        0.0015
     13 C         142.9554  141.7881  170.0364 C.ar    1  UNL1        0.0003
     14 C         142.7608  141.3998  168.6007 C.ar    1  UNL1        0.0063
     15 C         141.4959  140.7162  168.1735 C.ar    1  UNL1        0.0742
     16 C         141.3012  140.3279  166.7377 C.ar    1  UNL1        0.2669
     17 O         142.3716  140.6232  165.7292 O.2     1  UNL1       -0.2665
     18 N         140.0363  139.6443  166.3105 N.ar    1  UNL1       -0.2626
     19 O         139.2579  138.0910  160.5675 O.3     1  UNL1       -0.4791
     20 C         140.3368  138.3679  159.5628 C.3     1  UNL1        0.1687
     21 C         141.7286  138.6837  160.0247 C.3     1  UNL1        0.0609
     22 C         142.8075  138.9606  159.0200 C.3     1  UNL1        0.0758
     23 N         142.4946  138.9217  157.5535 N.3     1  UNL1       -0.2737
     24 C         141.1028  138.6060  157.0917 C.3     1  UNL1        0.0758
     25 C         140.0239  138.3291  158.0963 C.3     1  UNL1        0.0609
     26 C         143.5735  139.1986  156.5488 C.3     1  UNL1        0.0575
     27 C         144.5959  140.2801  156.3612 C.3     1  UNL1        0.0160
     28 C         145.0992  139.5902  155.1280 C.3     1  UNL1        0.0028
     29 C         144.0769  138.5088  155.3157 C.3     1  UNL1        0.0160
@<TRIPOS>BOND
     1     7     8    1
     2     8     9   ar
     3     9    10   ar
     4    10    11   ar
     5    11    12   ar
     6    12    13   ar
     7    13    14   ar
     8    14    15   ar
     9    15    16   ar
    10    16    17    2
    11    16    18   ar
    12    18     1    1
    13     1     2   ar
    14     2     3   ar
    15     3     4   ar
    16     4    19    1
    17    19    20    1
    18    20    21    1
    19    21    22    1
    20    22    23    1
    21    23    26    1
    22    26    27    1
    23    27    28    1
    24    28    29    1
    25    23    24    1
    26    24    25    1
    27     4     5   ar
    28     5     6   ar
    29    18     8   ar
    30     6     1   ar
    31    15    10   ar
    32    25    20    1
    33    29    26    1
@<TRIPOS>MOLECULE
*****
 29 33 0 0 0
SMALL
GASTEIGER

@<TRIPOS>ATOM
      1 C         140.8728  139.4212  160.2012 C.ar    1  UNL1        0.0681
      2 C         140.4941  139.4573  158.7503 C.ar    1  UNL1        0.0208
      3 C         141.3045  138.6947  157.7444 C.ar    1  UNL1        0.0384
      4 C         142.4936  137.8961  158.1896 C.ar    1  UNL1        0.1385
      5 C         142.8723  137.8601  159.6405 C.ar    1  UNL1        0.0384
      6 C         142.0619  138.6226  160.6463 C.ar    1  UNL1        0.0208
      7 C         138.5495  138.1023  161.5661 C.3     1  UNL1        0.0723
      8 C         138.9007  139.5244  161.8895 C.ar    1  UNL1        0.1268
      9 N         138.0902  140.2869  162.8953 N.ar    1  UNL1       -0.2318
     10 C         138.4414  141.7090  163.2187 C.ar    1  UNL1        0.0872
     11 C         137.6310  142.4715  164.2245 C.ar    1  UNL1        0.0193
     12 C         137.9822  143.8935  164.5478 C.ar    1  UNL1        0.0015
     13 C         139.1438  144.5529  163.8654 C.ar    1  UNL1        0.0003
     14 C         139.9543  143.7904  162.8596 C.ar    1  UNL1        0.0063
     15 C         139.6031  142.3684  162.5362 C.ar    1  UNL1        0.0742
     16 C         140.4135  141.6058  161.5304 C.ar    1  UNL1        0.2669
     17 O         141.5752  142.2653  160.8480 O.2     1  UNL1       -0.2665
     18 N         140.0623  140.1838  161.2071 N.ar    1  UNL1       -0.2626
     19 O         143.3040  137.1335  157.1837 O.3     1  UNL1       -0.4791
     20 C         142.8562  135.7740  156.7352 C.3     1  UNL1        0.1687
     21 C         143.4562  134.5453  157.3521 C.3     1  UNL1        0.0609
     22 C         143.0083  133.1858  156.9036 C.3     1  UNL1        0.0758
     23 N         141.9606  133.0549  155.8381 N.3     1  UNL1       -0.2737
     24 C         141.3607  134.2836  155.2213 C.3     1  UNL1        0.0758
     25 C         141.8085  135.6431  155.6698 C.3     1  UNL1        0.0609
     26 C         141.5128  131.6954  155.3896 C.3     1  UNL1        0.0575
     27 C         140.3489  131.1676  154.6041 C.3     1  UNL1        0.0160
     28 C         140.8794  129.7728  154.7553 C.3     1  UNL1        0.0028
     29 C         142.0432  130.3005  155.5408 C.3     1  UNL1        0.0160
@<TRIPOS>BOND
     1     7     8    1
     2     8     9   ar
     3     9    10   ar
     4    10    11   ar
     5    11    12   ar
     6    12    13   ar
     7    13    14   ar
     8    14    15   ar
     9    15    16   ar
    10    16    17    2
    11    16    18   ar
    12    18     1    1
    13     1     2   ar
    14     2     3   ar
    15     3     4   ar
    16     4    19    1
    17    19    20    1
    18    20    21    1
    19    21    22    1
    20    22    23    1
    21    23    26    1
    22    26    27    1
    23    27    28    1
    24    28    29    1
    25    23    24    1
    26    24    25    1
    27     4     5   ar
    28     5     6   ar
    29    18     8   ar
    30     6     1   ar
    31    15    10   ar
    32    25    20    1
    33    29    26    1
@<TRIPOS>MOLECULE
*****
 29 33 0 0 0
SMALL
GASTEIGER

@<TRIPOS>ATOM
      1 C         141.3213  138.7942  162.1328 C.ar    1  UNL1        0.0681
      2 C         140.8875  139.6590  160.9865 C.ar    1  UNL1        0.0208
      3 C         141.4770  139.4486  159.6233 C.ar    1  UNL1        0.0384
      4 C         142.5002  138.3735  159.4064 C.ar    1  UNL1        0.1385
      5 C         142.9339  137.5087  160.5527 C.ar    1  UNL1        0.0384
      6 C         142.3445  137.7190  161.9159 C.ar    1  UNL1        0.0208
      7 C         138.6409  137.6260  162.8045 C.3     1  UNL1        0.0723
      8 C         139.3916  138.4205  163.8318 C.ar    1  UNL1        0.1268
      9 N         138.8021  138.6309  165.1950 N.ar    1  UNL1       -0.2318
     10 C         139.5528  139.4253  166.2223 C.ar    1  UNL1        0.0872
     11 C         138.9633  139.6357  167.5855 C.ar    1  UNL1        0.0193
     12 C         139.7139  140.4301  168.6127 C.ar    1  UNL1        0.0015
     13 C         141.0541  141.0142  168.2769 C.ar    1  UNL1        0.0003
     14 C         141.6436  140.8038  166.9137 C.ar    1  UNL1        0.0063
     15 C         140.8929  140.0094  165.8865 C.ar    1  UNL1        0.0742
     16 C         141.4824  139.7990  164.5233 C.ar    1  UNL1        0.2669
     17 O         142.8226  140.3831  164.1874 O.2     1  UNL1       -0.2665
     18 N         140.7318  139.0046  163.4960 N.ar    1  UNL1       -0.2626
     19 O         143.0897  138.1631  158.0432 O.3     1  UNL1       -0.4791
     20 C         142.6672  136.9844  157.2172 C.3     1  UNL1        0.1687
     21 C         143.4306  135.6960  157.3031 C.3     1  UNL1        0.0609
     22 C         143.0081  134.5174  156.4771 C.3     1  UNL1        0.0758
     23 N         141.8222  134.6272  155.5651 N.3     1  UNL1       -0.2737
     24 C         141.0588  135.9155  155.4792 C.3     1  UNL1        0.0758
     25 C         141.4813  137.0942  156.3052 C.3     1  UNL1        0.0609
     26 C         141.3997  133.4486  154.7390 C.3     1  UNL1        0.0575
     27 C         141.0259  132.0260  155.0338 C.3     1  UNL1        0.0160
     28 C         140.8022  131.7818  153.5709 C.3     1  UNL1        0.0028
     29 C         141.1759  133.2042  153.2761 C.3     1  UNL1        0.0160
@<TRIPOS>BOND
     1     7     8    1
     2     8     9   ar
     3     9    10   ar
     4    10    11   ar
     5    11    12   ar
     6    12    13   ar
     7    13    14   ar
     8    14    15   ar
     9    15    16   ar
    10    16    17    2
    11    16    18   ar
    12    18     1    1
    13     1     2   ar
    14     2     3   ar
    15     3     4   ar
    16     4    19    1
    17    19    20    1
    18    20    21    1
    19    21    22    1
    20    22    23    1
    21    23    26    1
    22    26    27    1
    23    27    28    1
    24    28    29    1
    25    23    24    1
    26    24    25    1
    27     4     5   ar
    28     5     6   ar
    29    18     8   ar
    30     6     1   ar
    31    15    10   ar
    32    25    20    1
    33    29    26    1
@<TRIPOS>MOLECULE
*****
 29 33 0 0 0
SMALL
GASTEIGER

@<TRIPOS>ATOM
      1 C         143.0343  140.6346  164.6912 C.ar    1  UNL1        0.0681
      2 C         144.4527  140.7674  164.2215 C.ar    1  UNL1        0.0208
      3 C         144.7520  140.8514  162.7541 C.ar    1  UNL1        0.0384
      4 C         143.6331  140.8026  161.7565 C.ar    1  UNL1        0.1385
      5 C         142.2147  140.6698  162.2261 C.ar    1  UNL1        0.0384
      6 C         141.9153  140.5858  163.6935 C.ar    1  UNL1        0.0208
      7 C         143.7164  138.1458  166.2211 C.3     1  UNL1        0.0723
      8 C         143.0760  139.3062  166.9237 C.ar    1  UNL1        0.1268
      9 N         142.7767  139.2222  168.3911 N.ar    1  UNL1       -0.2318
     10 C         142.1363  140.3826  169.0936 C.ar    1  UNL1        0.0872
     11 C         141.8370  140.2985  170.5610 C.ar    1  UNL1        0.0193
     12 C         141.1967  141.4589  171.2634 C.ar    1  UNL1        0.0015
     13 C         140.8556  142.7033  170.4985 C.ar    1  UNL1        0.0003
     14 C         141.1549  142.7873  169.0311 C.ar    1  UNL1        0.0063
     15 C         141.7953  141.6270  168.3286 C.ar    1  UNL1        0.0742
     16 C         142.0946  141.7110  166.8611 C.ar    1  UNL1        0.2669
     17 O         141.7536  142.9554  166.0962 O.2     1  UNL1       -0.2665
     18 N         142.7350  140.5506  166.1587 N.ar    1  UNL1       -0.2626
     19 O         143.9324  140.8866  160.2890 O.3     1  UNL1       -0.4791
     20 C         143.5887  139.7388  159.3865 C.3     1  UNL1        0.1687
     21 C         143.6096  139.9228  157.8980 C.3     1  UNL1        0.0609
     22 C         143.2659  138.7749  156.9955 C.3     1  UNL1        0.0758
     23 N         142.9014  137.4431  157.5817 N.3     1  UNL1       -0.2737
     24 C         142.8805  137.2592  159.0702 C.3     1  UNL1        0.0758
     25 C         143.2242  138.4071  159.9726 C.3     1  UNL1        0.0609
     26 C         142.5577  136.2953  156.6793 C.3     1  UNL1        0.0575
     27 C         143.1882  134.9725  156.3587 C.3     1  UNL1        0.0160
     28 C         142.0717  134.6720  155.4030 C.3     1  UNL1        0.0028
     29 C         141.4413  135.9948  155.7236 C.3     1  UNL1        0.0160
@<TRIPOS>BOND
     1     7     8    1
     2     8     9   ar
     3     9    10   ar
     4    10    11   ar
     5    11    12   ar
     6    12    13   ar
     7    13    14   ar
     8    14    15   ar
     9    15    16   ar
    10    16    17    2
    11    16    18   ar
    12    18     1    1
    13     1     2   ar
    14     2     3   ar
    15     3     4   ar
    16     4    19    1
    17    19    20    1
    18    20    21    1
    19    21    22    1
    20    22    23    1
    21    23    26    1
    22    26    27    1
    23    27    28    1
    24    28    29    1
    25    23    24    1
    26    24    25    1
    27     4     5   ar
    28     5     6   ar
    29    18     8   ar
    30     6     1   ar
    31    15    10   ar
    32    25    20    1
    33    29    26    1
@<TRIPOS>MOLECULE
*****
 29 33 0 0 0
SMALL
GASTEIGER

@<TRIPOS>ATOM
      1 C         142.4205  138.7811  159.3644 C.ar    1  UNL1        0.0681
      2 C         142.7474  137.7926  160.4442 C.ar    1  UNL1        0.0208
      3 C         143.5803  138.2130  161.6187 C.ar    1  UNL1        0.0384
      4 C         144.0862  139.6219  161.7135 C.ar    1  UNL1        0.1385
      5 C         143.7593  140.6104  160.6337 C.ar    1  UNL1        0.0384
      6 C         142.9264  140.1900  159.4591 C.ar    1  UNL1        0.0208
      7 C         139.4278  138.9197  159.5214 C.3     1  UNL1        0.0723
      8 C         140.0912  138.4300  158.2683 C.ar    1  UNL1        0.1268
      9 N         139.2583  138.0096  157.0938 N.ar    1  UNL1       -0.2318
     10 C         139.9217  137.5198  155.8408 C.ar    1  UNL1        0.0872
     11 C         139.0888  137.0994  154.6663 C.ar    1  UNL1        0.0193
     12 C         139.7523  136.6097  153.4133 C.ar    1  UNL1        0.0015
     13 C         141.2486  136.5404  153.3348 C.ar    1  UNL1        0.0003
     14 C         142.0815  136.9609  154.5093 C.ar    1  UNL1        0.0063
     15 C         141.4181  137.4505  155.7623 C.ar    1  UNL1        0.0742
     16 C         142.2510  137.8710  156.9368 C.ar    1  UNL1        0.2669
     17 O         143.7473  137.8017  156.8583 O.2     1  UNL1       -0.2665
     18 N         141.5876  138.3607  158.1898 N.ar    1  UNL1       -0.2626
     19 O         144.9191  140.0424  162.8880 O.3     1  UNL1       -0.4791
     20 C         144.2576  140.5774  164.1234 C.3     1  UNL1        0.1687
     21 C         144.3186  142.0443  164.4313 C.3     1  UNL1        0.0609
     22 C         143.6571  142.5793  165.6667 C.3     1  UNL1        0.0758
     23 N         142.9346  141.6476  166.5941 N.3     1  UNL1       -0.2737
     24 C         142.8737  140.1808  166.2861 C.3     1  UNL1        0.0758
     25 C         143.5352  139.6458  165.0507 C.3     1  UNL1        0.0609
     26 C         142.2731  142.1827  167.8294 C.3     1  UNL1        0.0575
     27 C         142.7313  142.5158  169.2184 C.3     1  UNL1        0.0160
     28 C         141.3376  142.9394  169.5765 C.3     1  UNL1        0.0028
     29 C         140.8795  142.6063  168.1876 C.3     1  UNL1        0.0160
@<TRIPOS>BOND
     1     7     8    1
     2     8     9   ar
     3     9    10   ar
     4    10    11   ar
     5    11    12   ar
     6    12    13   ar
     7    13    14   ar
     8    14    15   ar
     9    15    16   ar
    10    16    17    2
    11    16    18   ar
    12    18     1    1
    13     1     2   ar
    14     2     3   ar
    15     3     4   ar
    16     4    19    1
    17    19    20    1
    18    20    21    1
    19    21    22    1
    20    22    23    1
    21    23    26    1
    22    26    27    1
    23    27    28    1
    24    28    29    1
    25    23    24    1
    26    24    25    1
    27     4     5   ar
    28     5     6   ar
    29    18     8   ar
    30     6     1   ar
    31    15    10   ar
    32    25    20    1
    33    29    26    1
