@<TRIPOS>MOLECULE
*****
 28 31 0 0 0
SMALL
GASTEIGER

@<TRIPOS>ATOM
      1 N         141.8577  140.9851  165.7239 N.pl3   1  UNL1       -0.2861
      2 C         143.1125  141.2385  164.9420 C.ar    1  UNL1        0.0576
      3 C         143.9226  142.4735  165.2034 C.ar    1  UNL1        0.0153
      4 C         145.1773  142.7269  164.4215 C.ar    1  UNL1        0.0013
      5 C         145.6219  141.7451  163.3782 C.ar    1  UNL1        0.0006
      6 C         144.8119  140.5101  163.1168 C.ar    1  UNL1        0.0077
      7 C         143.5571  140.2568  163.8987 C.ar    1  UNL1        0.0431
      8 S         142.7470  139.0217  163.6373 S.3     1  UNL1       -0.0844
      9 C         141.4922  138.7683  164.4192 C.ar    1  UNL1        0.0431
     10 C         140.6821  137.5332  164.1578 C.ar    1  UNL1        0.0077
     11 C         139.4274  137.2799  164.9397 C.ar    1  UNL1        0.0044
     12 C         138.9827  138.2616  165.9830 C.ar    1  UNL1        0.0727
     13 C         139.7928  139.4967  166.2445 C.ar    1  UNL1        0.0192
     14 C         141.0476  139.7501  165.4625 C.ar    1  UNL1        0.0576
     15 C         137.7280  138.0083  166.7650 C.3     1  UNL1        0.4186
     16 F         136.4732  137.7550  167.5469 F       1  UNL1       -0.1659
     17 F         137.7028  139.4464  167.1905 F       1  UNL1       -0.1659
     18 F         137.7532  136.5702  166.3394 F       1  UNL1       -0.1659
     19 C         141.4130  141.9668  166.7672 C.3     1  UNL1        0.0970
     20 C         140.3218  142.9481  166.4571 C.3     1  UNL1        0.0391
     21 C         140.1555  143.4681  165.0600 C.3     1  UNL1        0.0739
     22 C         137.5550  140.0444  160.8747 C.3     1  UNL1        0.0897
     23 N         138.2051  140.9003  161.9210 N.3     1  UNL1       -0.2691
     24 C         139.6099  141.3882  161.7243 C.3     1  UNL1        0.0897
     25 C         140.2600  142.2441  162.7706 C.3     1  UNL1        0.0897
     26 N         139.5054  142.6121  164.0136 N.3     1  UNL1       -0.2703
     27 C         138.1006  142.1242  164.2103 C.3     1  UNL1        0.0897
     28 C         137.4505  141.2683  163.1640 C.3     1  UNL1        0.0897
@<TRIPOS>BOND
     1    22    23    1
     2    23    24    1
     3    24    25    1
     4    25    26    1
     5    26    21    1
     6    21    20    1
     7    20    19    1
     8    19     1    1
     9     1     2    1
    10     2     3   ar
    11     3     4   ar
    12     4     5   ar
    13     5     6   ar
    14     6     7   ar
    15     7     8    1
    16     8     9    1
    17     9    10   ar
    18    10    11   ar
    19    11    12   ar
    20    12    15    1
    21    15    16    1
    22    15    17    1
    23    15    18    1
    24    12    13   ar
    25    13    14   ar
    26    26    27    1
    27    27    28    1
    28    28    23    1
    29    14     1    1
    30     7     2   ar
    31    14     9   ar
@<TRIPOS>MOLECULE
*****
 28 31 0 0 0
SMALL
GASTEIGER

@<TRIPOS>ATOM
      1 N         141.9209  141.1975  166.0374 N.pl3   1  UNL1       -0.2861
      2 C         142.5174  142.4234  165.4117 C.ar    1  UNL1        0.0576
      3 C         143.9160  142.8385  165.7603 C.ar    1  UNL1        0.0153
      4 C         144.5124  144.0643  165.1345 C.ar    1  UNL1        0.0013
      5 C         143.7103  144.8750  164.1602 C.ar    1  UNL1        0.0006
      6 C         142.3117  144.4598  163.8116 C.ar    1  UNL1        0.0077
      7 C         141.7152  143.2340  164.4373 C.ar    1  UNL1        0.0431
      8 S         140.3166  142.8189  164.0887 S.3     1  UNL1       -0.0844
      9 C         139.7201  141.5930  164.7144 C.ar    1  UNL1        0.0431
     10 C         138.3215  141.1779  164.3658 C.ar    1  UNL1        0.0077
     11 C         137.7250  139.9521  164.9916 C.ar    1  UNL1        0.0044
     12 C         138.5272  139.1414  165.9659 C.ar    1  UNL1        0.0727
     13 C         139.9258  139.5565  166.3145 C.ar    1  UNL1        0.0192
     14 C         140.5223  140.7824  165.6888 C.ar    1  UNL1        0.0576
     15 C         137.9307  137.9156  166.5917 C.3     1  UNL1        0.4186
     16 F         137.3343  136.6897  167.2174 F       1  UNL1       -0.1659
     17 F         138.5069  137.0738  165.4919 F       1  UNL1       -0.1659
     18 F         137.3546  138.7573  167.6914 F       1  UNL1       -0.1659
     19 C         142.7230  140.3868  167.0118 C.3     1  UNL1        0.0970
     20 C         143.3416  139.0908  166.5787 C.3     1  UNL1        0.0391
     21 C         143.7495  138.8952  165.1486 C.3     1  UNL1        0.0739
     22 C         139.5735  138.0075  160.9327 C.3     1  UNL1        0.0897
     23 N         140.6175  138.2295  161.9867 N.3     1  UNL1       -0.2691
     24 C         141.5541  139.3963  161.8807 C.3     1  UNL1        0.0897
     25 C         142.5981  139.6183  162.9346 C.3     1  UNL1        0.0897
     26 N         142.7055  138.6733  164.0946 N.3     1  UNL1       -0.2703
     27 C         141.7689  137.5064  164.2006 C.3     1  UNL1        0.0897
     28 C         140.7249  137.2845  163.1466 C.3     1  UNL1        0.0897
@<TRIPOS>BOND
     1    22    23    1
     2    23    24    1
     3    24    25    1
     4    25    26    1
     5    26    21    1
     6    21    20    1
     7    20    19    1
     8    19     1    1
     9     1     2    1
    10     2     3   ar
    11     3     4   ar
    12     4     5   ar
    13     5     6   ar
    14     6     7   ar
    15     7     8    1
    16     8     9    1
    17     9    10   ar
    18    10    11   ar
    19    11    12   ar
    20    12    15    1
    21    15    16    1
    22    15    17    1
    23    15    18    1
    24    12    13   ar
    25    13    14   ar
    26    26    27    1
    27    27    28    1
    28    28    23    1
    29    14     1    1
    30     7     2   ar
    31    14     9   ar
@<TRIPOS>MOLECULE
*****
 28 31 0 0 0
SMALL
GASTEIGER

@<TRIPOS>ATOM
      1 N         141.0257  142.1964  164.9954 N.pl3   1  UNL1       -0.2861
      2 C         142.1332  142.7670  164.1600 C.ar    1  UNL1        0.0576
      3 C         142.4798  144.2225  164.2669 C.ar    1  UNL1        0.0153
      4 C         143.5873  144.7930  163.4315 C.ar    1  UNL1        0.0013
      5 C         144.3482  143.9081  162.4892 C.ar    1  UNL1        0.0006
      6 C         144.0016  142.4526  162.3823 C.ar    1  UNL1        0.0077
      7 C         142.8941  141.8821  163.2177 C.ar    1  UNL1        0.0431
      8 S         142.5475  140.4266  163.1109 S.3     1  UNL1       -0.0844
      9 C         141.4400  139.8560  163.9462 C.ar    1  UNL1        0.0431
     10 C         141.0934  138.4005  163.8394 C.ar    1  UNL1        0.0077
     11 C         139.9859  137.8300  164.6748 C.ar    1  UNL1        0.0044
     12 C         139.2250  138.7149  165.6171 C.ar    1  UNL1        0.0727
     13 C         139.5715  140.1704  165.7239 C.ar    1  UNL1        0.0192
     14 C         140.6791  140.7410  164.8885 C.ar    1  UNL1        0.0576
     15 C         138.1175  138.1444  166.4524 C.3     1  UNL1        0.4186
     16 F         137.0099  137.5739  167.2879 F       1  UNL1       -0.1659
     17 F         138.0514  139.4212  167.2369 F       1  UNL1       -0.1659
     18 F         138.1835  136.8676  165.6680 F       1  UNL1       -0.1659
     19 C         140.2647  143.0814  165.9377 C.3     1  UNL1        0.0970
     20 C         139.1468  143.9391  165.4234 C.3     1  UNL1        0.0391
     21 C         138.4239  143.5548  164.1665 C.3     1  UNL1        0.0739
     22 C         140.4903  145.3832  158.8385 C.3     1  UNL1        0.0897
     23 N         139.9737  144.9261  160.1706 N.3     1  UNL1       -0.2691
     24 C         139.8703  145.8978  161.3086 C.3     1  UNL1        0.0897
     25 C         139.3537  145.4408  162.6405 C.3     1  UNL1        0.0897
     26 N         138.9405  144.0119  162.8345 N.3     1  UNL1       -0.2703
     27 C         139.0439  143.0402  161.6965 C.3     1  UNL1        0.0897
     28 C         139.5605  143.4973  160.3645 C.3     1  UNL1        0.0897
@<TRIPOS>BOND
     1    22    23    1
     2    23    24    1
     3    24    25    1
     4    25    26    1
     5    26    21    1
     6    21    20    1
     7    20    19    1
     8    19     1    1
     9     1     2    1
    10     2     3   ar
    11     3     4   ar
    12     4     5   ar
    13     5     6   ar
    14     6     7   ar
    15     7     8    1
    16     8     9    1
    17     9    10   ar
    18    10    11   ar
    19    11    12   ar
    20    12    15    1
    21    15    16    1
    22    15    17    1
    23    15    18    1
    24    12    13   ar
    25    13    14   ar
    26    26    27    1
    27    27    28    1
    28    28    23    1
    29    14     1    1
    30     7     2   ar
    31    14     9   ar
@<TRIPOS>MOLECULE
*****
 28 31 0 0 0
SMALL
GASTEIGER

@<TRIPOS>ATOM
      1 N         140.8652  142.3209  164.9396 N.pl3   1  UNL1       -0.2861
      2 C         141.9985  142.9162  164.1577 C.ar    1  UNL1        0.0576
      3 C         142.2299  144.3980  164.1822 C.ar    1  UNL1        0.0153
      4 C         143.3632  144.9931  163.4004 C.ar    1  UNL1        0.0013
      5 C         144.2652  144.1064  162.5939 C.ar    1  UNL1        0.0006
      6 C         144.0338  142.6246  162.5693 C.ar    1  UNL1        0.0077
      7 C         142.9005  142.0295  163.3512 C.ar    1  UNL1        0.0431
      8 S         142.6690  140.5476  163.3267 S.3     1  UNL1       -0.0844
      9 C         141.5357  139.9525  164.1086 C.ar    1  UNL1        0.0431
     10 C         141.3043  138.4706  164.0840 C.ar    1  UNL1        0.0077
     11 C         140.1710  137.8754  164.8659 C.ar    1  UNL1        0.0044
     12 C         139.2691  138.7621  165.6724 C.ar    1  UNL1        0.0727
     13 C         139.5005  140.2439  165.6969 C.ar    1  UNL1        0.0192
     14 C         140.6338  140.8391  164.9150 C.ar    1  UNL1        0.0576
     15 C         138.1358  138.1670  166.4542 C.3     1  UNL1        0.4186
     16 F         137.0024  137.5718  167.2361 F       1  UNL1       -0.1659
     17 F         138.1762  136.9462  165.5837 F       1  UNL1       -0.1659
     18 F         138.0953  139.3878  167.3248 F       1  UNL1       -0.1659
     19 C         139.9633  143.2076  165.7460 C.3     1  UNL1        0.0970
     20 C         138.8651  143.9740  165.0703 C.3     1  UNL1        0.0391
     21 C         137.7212  143.2416  164.4339 C.3     1  UNL1        0.0739
     22 C         138.4553  140.5791  159.1073 C.3     1  UNL1        0.0897
     23 N         138.2718  141.2448  160.4390 N.3     1  UNL1       -0.2691
     24 C         137.6079  140.5047  161.5622 C.3     1  UNL1        0.0897
     25 C         137.4243  141.1703  162.8938 C.3     1  UNL1        0.0897
     26 N         137.9047  142.5759  163.1022 N.3     1  UNL1       -0.2703
     27 C         138.5686  143.3159  161.9790 C.3     1  UNL1        0.0897
     28 C         138.7521  142.6504  160.6474 C.3     1  UNL1        0.0897
@<TRIPOS>BOND
     1    22    23    1
     2    23    24    1
     3    24    25    1
     4    25    26    1
     5    26    21    1
     6    21    20    1
     7    20    19    1
     8    19     1    1
     9     1     2    1
    10     2     3   ar
    11     3     4   ar
    12     4     5   ar
    13     5     6   ar
    14     6     7   ar
    15     7     8    1
    16     8     9    1
    17     9    10   ar
    18    10    11   ar
    19    11    12   ar
    20    12    15    1
    21    15    16    1
    22    15    17    1
    23    15    18    1
    24    12    13   ar
    25    13    14   ar
    26    26    27    1
    27    27    28    1
    28    28    23    1
    29    14     1    1
    30     7     2   ar
    31    14     9   ar
@<TRIPOS>MOLECULE
*****
 28 31 0 0 0
SMALL
GASTEIGER

@<TRIPOS>ATOM
      1 N         140.6178  139.7424  165.7163 N.pl3   1  UNL1       -0.2861
      2 C         141.4768  139.2211  164.6025 C.ar    1  UNL1        0.0576
      3 C         140.9104  138.2490  163.6106 C.ar    1  UNL1        0.0153
      4 C         141.7694  137.7277  162.4969 C.ar    1  UNL1        0.0013
      5 C         143.1948  138.1787  162.3751 C.ar    1  UNL1        0.0006
      6 C         143.7612  139.1509  163.3671 C.ar    1  UNL1        0.0077
      7 C         142.9022  139.6721  164.4808 C.ar    1  UNL1        0.0431
      8 S         143.4686  140.6443  165.4728 S.3     1  UNL1       -0.0844
      9 C         142.6096  141.1655  166.5865 C.ar    1  UNL1        0.0431
     10 C         143.1760  142.1377  167.5786 C.ar    1  UNL1        0.0077
     11 C         142.3170  142.6590  168.6923 C.ar    1  UNL1        0.0044
     12 C         140.8916  142.2080  168.8140 C.ar    1  UNL1        0.0727
     13 C         140.3252  141.2358  167.8221 C.ar    1  UNL1        0.0192
     14 C         141.1842  140.7146  166.7083 C.ar    1  UNL1        0.0576
     15 C         140.0326  142.7292  169.9277 C.3     1  UNL1        0.4186
     16 F         139.1736  143.2505  171.0415 F       1  UNL1       -0.1659
     17 F         140.8211  144.0052  169.9388 F       1  UNL1       -0.1659
     18 F         139.2441  141.4533  169.9167 F       1  UNL1       -0.1659
     19 C         139.1924  139.2914  165.8381 C.3     1  UNL1        0.0970
     20 C         138.0916  140.1137  165.2363 C.3     1  UNL1        0.0391
     21 C         138.1215  140.4526  163.7754 C.3     1  UNL1        0.0739
     22 C         139.7723  145.9419  162.0026 C.3     1  UNL1        0.0897
     23 N         139.3596  144.5695  162.4458 N.3     1  UNL1       -0.2691
     24 C         137.9979  144.3496  163.0352 C.3     1  UNL1        0.0897
     25 C         137.5852  142.9774  163.4785 C.3     1  UNL1        0.0897
     26 N         138.5342  141.8250  163.3322 N.3     1  UNL1       -0.2703
     27 C         139.8958  142.0449  162.7427 C.3     1  UNL1        0.0897
     28 C         140.3086  143.4172  162.2995 C.3     1  UNL1        0.0897
@<TRIPOS>BOND
     1    22    23    1
     2    23    24    1
     3    24    25    1
     4    25    26    1
     5    26    21    1
     6    21    20    1
     7    20    19    1
     8    19     1    1
     9     1     2    1
    10     2     3   ar
    11     3     4   ar
    12     4     5   ar
    13     5     6   ar
    14     6     7   ar
    15     7     8    1
    16     8     9    1
    17     9    10   ar
    18    10    11   ar
    19    11    12   ar
    20    12    15    1
    21    15    16    1
    22    15    17    1
    23    15    18    1
    24    12    13   ar
    25    13    14   ar
    26    26    27    1
    27    27    28    1
    28    28    23    1
    29    14     1    1
    30     7     2   ar
    31    14     9   ar
@<TRIPOS>MOLECULE
*****
 28 31 0 0 0
SMALL
GASTEIGER

@<TRIPOS>ATOM
      1 N         138.6776  141.7122  163.4991 N.pl3   1  UNL1       -0.2861
      2 C         139.3439  143.0174  163.1783 C.ar    1  UNL1        0.0576
      3 C         139.1295  143.6598  161.8399 C.ar    1  UNL1        0.0153
      4 C         139.7957  144.9649  161.5192 C.ar    1  UNL1        0.0013
      5 C         140.6763  145.6275  162.5368 C.ar    1  UNL1        0.0006
      6 C         140.8906  144.9850  163.8752 C.ar    1  UNL1        0.0077
      7 C         140.2244  143.6800  164.1959 C.ar    1  UNL1        0.0431
      8 S         140.4387  143.0375  165.5344 S.3     1  UNL1       -0.0844
      9 C         139.7725  141.7324  165.8551 C.ar    1  UNL1        0.0431
     10 C         139.9868  141.0899  167.1935 C.ar    1  UNL1        0.0077
     11 C         139.3206  139.7848  167.5143 C.ar    1  UNL1        0.0044
     12 C         138.4401  139.1222  166.4966 C.ar    1  UNL1        0.0727
     13 C         138.2257  139.7646  165.1583 C.ar    1  UNL1        0.0192
     14 C         138.8920  141.0698  164.8375 C.ar    1  UNL1        0.0576
     15 C         137.7739  137.8171  166.8174 C.3     1  UNL1        0.4186
     16 F         137.1076  136.5120  167.1381 F       1  UNL1       -0.1659
     17 F         138.4960  137.1676  165.6743 F       1  UNL1       -0.1659
     18 F         137.0517  138.4667  167.9604 F       1  UNL1       -0.1659
     19 C         137.7971  141.0496  162.4815 C.3     1  UNL1        0.0970
     20 C         138.3076  139.8769  161.6978 C.3     1  UNL1        0.0391
     21 C         139.6354  139.9588  161.0047 C.3     1  UNL1        0.0739
     22 C         144.7071  139.4104  164.1635 C.3     1  UNL1        0.0897
     23 N         143.4391  139.5475  163.3738 N.3     1  UNL1       -0.2691
     24 C         143.2392  140.7323  162.4758 C.3     1  UNL1        0.0897
     25 C         141.9713  140.8694  161.6862 C.3     1  UNL1        0.0897
     26 N         140.9033  139.8217  161.7944 N.3     1  UNL1       -0.2703
     27 C         141.1033  138.6369  162.6923 C.3     1  UNL1        0.0897
     28 C         142.3711  138.4998  163.4820 C.3     1  UNL1        0.0897
@<TRIPOS>BOND
     1    22    23    1
     2    23    24    1
     3    24    25    1
     4    25    26    1
     5    26    21    1
     6    21    20    1
     7    20    19    1
     8    19     1    1
     9     1     2    1
    10     2     3   ar
    11     3     4   ar
    12     4     5   ar
    13     5     6   ar
    14     6     7   ar
    15     7     8    1
    16     8     9    1
    17     9    10   ar
    18    10    11   ar
    19    11    12   ar
    20    12    15    1
    21    15    16    1
    22    15    17    1
    23    15    18    1
    24    12    13   ar
    25    13    14   ar
    26    26    27    1
    27    27    28    1
    28    28    23    1
    29    14     1    1
    30     7     2   ar
    31    14     9   ar
@<TRIPOS>MOLECULE
*****
 28 31 0 0 0
SMALL
GASTEIGER

@<TRIPOS>ATOM
      1 N         142.0329  141.2166  165.7225 N.pl3   1  UNL1       -0.2861
      2 C         142.5741  142.5193  165.2122 C.ar    1  UNL1        0.0576
      3 C         144.0115  142.8778  165.4469 C.ar    1  UNL1        0.0153
      4 C         144.5526  144.1804  164.9366 C.ar    1  UNL1        0.0013
      5 C         143.6562  145.1244  164.1915 C.ar    1  UNL1        0.0006
      6 C         142.2187  144.7659  163.9567 C.ar    1  UNL1        0.0077
      7 C         141.6777  143.4633  164.4670 C.ar    1  UNL1        0.0431
      8 S         140.2401  143.1048  164.2323 S.3     1  UNL1       -0.0844
      9 C         139.6991  141.8022  164.7426 C.ar    1  UNL1        0.0431
     10 C         138.2616  141.4436  164.5078 C.ar    1  UNL1        0.0077
     11 C         137.7205  140.1410  165.0182 C.ar    1  UNL1        0.0044
     12 C         138.6169  139.1970  165.7633 C.ar    1  UNL1        0.0727
     13 C         140.0544  139.5555  165.9981 C.ar    1  UNL1        0.0192
     14 C         140.5955  140.8581  165.4877 C.ar    1  UNL1        0.0576
     15 C         138.0759  137.8944  166.2736 C.3     1  UNL1        0.4186
     16 F         137.5347  136.5918  166.7840 F       1  UNL1       -0.1659
     17 F         137.1743  138.6374  167.2144 F       1  UNL1       -0.1659
     18 F         138.9774  137.1513  165.3329 F       1  UNL1       -0.1659
     19 C         142.9293  140.2726  166.4676 C.3     1  UNL1        0.0970
     20 C         143.7486  139.2657  165.7161 C.3     1  UNL1        0.0391
     21 C         143.3419  138.8493  164.3336 C.3     1  UNL1        0.0739
     22 C         143.6914  142.7612  159.7976 C.3     1  UNL1        0.0897
     23 N         143.6040  141.7832  160.9316 N.3     1  UNL1       -0.2691
     24 C         144.8070  141.5177  161.7874 C.3     1  UNL1        0.0897
     25 C         144.7196  140.5398  162.9214 C.3     1  UNL1        0.0897
     26 N         143.4293  139.8273  163.1996 N.3     1  UNL1       -0.2703
     27 C         142.2263  140.0928  162.3438 C.3     1  UNL1        0.0897
     28 C         142.3137  141.0708  161.2098 C.3     1  UNL1        0.0897
@<TRIPOS>BOND
     1    22    23    1
     2    23    24    1
     3    24    25    1
     4    25    26    1
     5    26    21    1
     6    21    20    1
     7    20    19    1
     8    19     1    1
     9     1     2    1
    10     2     3   ar
    11     3     4   ar
    12     4     5   ar
    13     5     6   ar
    14     6     7   ar
    15     7     8    1
    16     8     9    1
    17     9    10   ar
    18    10    11   ar
    19    11    12   ar
    20    12    15    1
    21    15    16    1
    22    15    17    1
    23    15    18    1
    24    12    13   ar
    25    13    14   ar
    26    26    27    1
    27    27    28    1
    28    28    23    1
    29    14     1    1
    30     7     2   ar
    31    14     9   ar
@<TRIPOS>MOLECULE
*****
 28 31 0 0 0
SMALL
GASTEIGER

@<TRIPOS>ATOM
      1 N         141.3605  138.7621  164.7272 N.pl3   1  UNL1       -0.2861
      2 C         142.3025  138.9226  163.5709 C.ar    1  UNL1        0.0576
      3 C         142.3297  137.8961  162.4776 C.ar    1  UNL1        0.0153
      4 C         143.2717  138.0566  161.3214 C.ar    1  UNL1        0.0013
      5 C         144.1865  139.2437  161.2586 C.ar    1  UNL1        0.0006
      6 C         144.1593  140.2703  162.3519 C.ar    1  UNL1        0.0077
      7 C         143.2173  140.1097  163.5081 C.ar    1  UNL1        0.0431
      8 S         143.1901  141.1363  164.6015 S.3     1  UNL1       -0.0844
      9 C         142.2481  140.9758  165.7577 C.ar    1  UNL1        0.0431
     10 C         142.2208  142.0024  166.8511 C.ar    1  UNL1        0.0077
     11 C         141.2788  141.8418  168.0073 C.ar    1  UNL1        0.0044
     12 C         140.3640  140.6547  168.0701 C.ar    1  UNL1        0.0727
     13 C         140.3913  139.6282  166.9768 C.ar    1  UNL1        0.0192
     14 C         141.3333  139.7887  165.8205 C.ar    1  UNL1        0.0576
     15 C         139.4221  140.4942  169.2263 C.3     1  UNL1        0.4186
     16 F         138.4800  140.3336  170.3825 F       1  UNL1       -0.1659
     17 F         138.5343  139.6280  168.3828 F       1  UNL1       -0.1659
     18 F         140.3098  141.3603  170.0699 F       1  UNL1       -0.1659
     19 C         140.4457  137.5750  164.7901 C.3     1  UNL1        0.0970
     20 C         139.0037  137.7180  164.4027 C.3     1  UNL1        0.0391
     21 C         138.6362  138.4008  163.1187 C.3     1  UNL1        0.0739
     22 C         137.7137  144.3288  163.0302 C.3     1  UNL1        0.0897
     23 N         137.9443  142.8468  163.0523 N.3     1  UNL1       -0.2691
     24 C         137.8786  142.0968  164.3497 C.3     1  UNL1        0.0897
     25 C         138.1092  140.6148  164.3718 C.3     1  UNL1        0.0897
     26 N         138.4055  139.8828  163.0966 N.3     1  UNL1       -0.2703
     27 C         138.4712  140.6328  161.7992 C.3     1  UNL1        0.0897
     28 C         138.2406  142.1148  161.7770 C.3     1  UNL1        0.0897
@<TRIPOS>BOND
     1    22    23    1
     2    23    24    1
     3    24    25    1
     4    25    26    1
     5    26    21    1
     6    21    20    1
     7    20    19    1
     8    19     1    1
     9     1     2    1
    10     2     3   ar
    11     3     4   ar
    12     4     5   ar
    13     5     6   ar
    14     6     7   ar
    15     7     8    1
    16     8     9    1
    17     9    10   ar
    18    10    11   ar
    19    11    12   ar
    20    12    15    1
    21    15    16    1
    22    15    17    1
    23    15    18    1
    24    12    13   ar
    25    13    14   ar
    26    26    27    1
    27    27    28    1
    28    28    23    1
    29    14     1    1
    30     7     2   ar
    31    14     9   ar
@<TRIPOS>MOLECULE
*****
 28 31 0 0 0
SMALL
GASTEIGER

@<TRIPOS>ATOM
      1 N         138.8012  141.5956  162.8204 N.pl3   1  UNL1       -0.2861
      2 C         139.6326  142.0822  161.6705 C.ar    1  UNL1        0.0576
      3 C         139.2963  143.3802  160.9982 C.ar    1  UNL1        0.0153
      4 C         140.1276  143.8667  159.8484 C.ar    1  UNL1        0.0013
      5 C         141.2953  143.0552  159.3709 C.ar    1  UNL1        0.0006
      6 C         141.6316  141.7572  160.0432 C.ar    1  UNL1        0.0077
      7 C         140.8002  141.2707  161.1930 C.ar    1  UNL1        0.0431
      8 S         141.1365  139.9726  161.8654 S.3     1  UNL1       -0.0844
      9 C         140.3051  139.4861  163.0152 C.ar    1  UNL1        0.0431
     10 C         140.6414  138.1881  163.6875 C.ar    1  UNL1        0.0077
     11 C         139.8100  137.7016  164.8373 C.ar    1  UNL1        0.0044
     12 C         138.6424  138.5131  165.3148 C.ar    1  UNL1        0.0727
     13 C         138.3061  139.8111  164.6425 C.ar    1  UNL1        0.0192
     14 C         139.1375  140.2976  163.4927 C.ar    1  UNL1        0.0576
     15 C         137.8110  138.0265  166.4646 C.3     1  UNL1        0.4186
     16 F         136.9796  137.5401  167.6145 F       1  UNL1       -0.1659
     17 F         137.5669  139.4446  166.8881 F       1  UNL1       -0.1659
     18 F         138.0551  136.6085  166.0411 F       1  UNL1       -0.1659
     19 C         137.6335  142.4071  163.2979 C.3     1  UNL1        0.0970
     20 C         137.7665  143.2651  164.5210 C.3     1  UNL1        0.0391
     21 C         138.7625  144.3864  164.5460 C.3     1  UNL1        0.0739
     22 C         144.6291  143.1802  164.9043 C.3     1  UNL1        0.0897
     23 N         143.1624  143.4818  164.8147 N.3     1  UNL1       -0.2691
     24 C         142.1813  142.6786  165.6161 C.3     1  UNL1        0.0897
     25 C         140.7147  142.9801  165.5266 C.3     1  UNL1        0.0897
     26 N         140.2292  144.0848  164.6356 N.3     1  UNL1       -0.2703
     27 C         141.2103  144.8880  163.8341 C.3     1  UNL1        0.0897
     28 C         142.6769  144.5865  163.9237 C.3     1  UNL1        0.0897
@<TRIPOS>BOND
     1    22    23    1
     2    23    24    1
     3    24    25    1
     4    25    26    1
     5    26    21    1
     6    21    20    1
     7    20    19    1
     8    19     1    1
     9     1     2    1
    10     2     3   ar
    11     3     4   ar
    12     4     5   ar
    13     5     6   ar
    14     6     7   ar
    15     7     8    1
    16     8     9    1
    17     9    10   ar
    18    10    11   ar
    19    11    12   ar
    20    12    15    1
    21    15    16    1
    22    15    17    1
    23    15    18    1
    24    12    13   ar
    25    13    14   ar
    26    26    27    1
    27    27    28    1
    28    28    23    1
    29    14     1    1
    30     7     2   ar
    31    14     9   ar
