@<TRIPOS>MOLECULE
*****
 38 41 0 0 0
SMALL
GASTEIGER

@<TRIPOS>ATOM
      1 C         142.9796  143.4368  164.2388 C.ar    1  UNL1        0.1532
      2 C         143.2784  142.9705  165.6328 C.ar    1  UNL1        0.0573
      3 C         142.2460  142.2032  166.4044 C.ar    1  UNL1        0.0856
      4 N         142.5448  141.7368  167.7984 N.ar    1  UNL1       -0.2435
      5 C         141.5124  140.9695  168.5700 C.ar    1  UNL1        0.1045
      6 C         140.1812  140.6684  167.9475 C.ar    1  UNL1        0.0856
      7 C         139.8825  141.1347  166.5535 C.ar    1  UNL1        0.0557
      8 C         140.9149  141.9021  165.7820 C.ar    1  UNL1        0.0327
      9 C         140.6161  142.3684  164.3880 C.ar    1  UNL1        0.0203
     10 C         141.6485  143.1358  163.6164 C.ar    1  UNL1        0.0825
     11 N         141.3497  143.6021  162.2223 N.pl3   1  UNL1       -0.3023
     12 C         140.8582  144.9998  161.9882 C.3     1  UNL1        0.1082
     13 C         140.5594  145.4661  160.5942 C.3     1  UNL1        0.0939
     14 N         140.7521  144.5347  159.4343 N.3     1  UNL1       -0.2677
     15 C         141.2437  143.1370  159.6684 C.3     1  UNL1        0.0939
     16 C         141.5425  142.6707  161.0624 C.3     1  UNL1        0.1082
     17 C         140.4533  145.0010  158.0403 C.3     1  UNL1        0.1043
     18 C         141.5599  145.5158  157.1683 C.3     1  UNL1        0.1544
     19 O         142.6273  146.3940  157.7510 O.3     1  UNL1       -0.3805
     20 H         142.2359  147.2363  158.0308 H       1  UNL1        0.2105
     21 C         139.1489  139.9011  168.7191 C.2     1  UNL1        0.2455
     22 N         139.0391  140.0765  170.2047 N.am    1  UNL1       -0.3252
     23 O         138.2262  138.9583  168.0050 O.2     1  UNL1       -0.2703
     24 H         139.6446  140.6953  170.6734 H       1  UNL1        0.1453
     25 H         138.3615  139.5728  170.7112 H       1  UNL1        0.1453
     26 N         138.5514  140.8337  165.9311 N.pl3   1  UNL1       -0.3106
     27 H         137.7256  141.1708  166.3479 H       1  UNL1        0.1523
     28 C         138.4784  140.0190  164.6737 C.ar    1  UNL1        0.0763
     29 C         139.0946  138.6522  164.6288 C.ar    1  UNL1        0.0192
     30 C         139.0217  137.8375  163.3715 C.ar    1  UNL1        0.0311
     31 C         138.3325  138.3897  162.1589 C.ar    1  UNL1        0.1425
     32 F         138.2596  137.5750  160.9016 F       1  UNL1       -0.2041
     33 C         137.7163  139.7565  162.2038 C.ar    1  UNL1        0.0605
     34 C         137.7893  140.5712  163.4612 C.ar    1  UNL1        0.1556
     35 F         137.1730  141.9380  163.5061 F       1  UNL1       -0.2028
     36 O         144.0120  144.2042  163.4672 O.3     1  UNL1       -0.4742
     37 C         145.1432  142.0943  162.4579 C.3     1  UNL1        0.0512
     38 C         144.7595  143.5403  162.3490 C.3     1  UNL1        0.2056
@<TRIPOS>BOND
     1    37    38    1
     2    38    36    1
     3    36     1    1
     4     1     2   ar
     5     2     3   ar
     6     3     4   ar
     7     4     5   ar
     8     5     6   ar
     9     6    21    1
    10    21    22   am
    11    21    23    2
    12     6     7   ar
    13     7    26    1
    14    26    28    1
    15    28    29   ar
    16    29    30   ar
    17    30    31   ar
    18    31    32    1
    19    31    33   ar
    20    33    34   ar
    21    34    35    1
    22     7     8   ar
    23     8     9   ar
    24     9    10   ar
    25    10    11    1
    26    11    12    1
    27    12    13    1
    28    13    14    1
    29    14    17    1
    30    17    18    1
    31    18    19    1
    32    14    15    1
    33    15    16    1
    34    10     1   ar
    35    16    11    1
    36     8     3   ar
    37    34    28   ar
    38    22    24    1
    39    22    25    1
    40    26    27    1
    41    19    20    1
@<TRIPOS>MOLECULE
*****
 38 41 0 0 0
SMALL
GASTEIGER

@<TRIPOS>ATOM
      1 C         139.4261  138.2531  163.0646 C.ar    1  UNL1        0.1532
      2 C         139.3955  138.0488  161.5789 C.ar    1  UNL1        0.0573
      3 C         139.0680  139.1967  160.6706 C.ar    1  UNL1        0.0856
      4 N         139.0373  138.9924  159.1848 N.ar    1  UNL1       -0.2435
      5 C         138.7098  140.1403  158.2765 C.ar    1  UNL1        0.1045
      6 C         138.4129  141.4926  158.8540 C.ar    1  UNL1        0.0856
      7 C         138.4436  141.6968  160.3397 C.ar    1  UNL1        0.0557
      8 C         138.7711  140.5489  161.2480 C.ar    1  UNL1        0.0327
      9 C         138.8018  140.7532  162.7337 C.ar    1  UNL1        0.0203
     10 C         139.1293  139.6053  163.6420 C.ar    1  UNL1        0.0825
     11 N         139.1599  139.8096  165.1277 N.pl3   1  UNL1       -0.3023
     12 C         138.2460  139.0152  166.0130 C.3     1  UNL1        0.1082
     13 C         138.2766  139.2195  167.4987 C.3     1  UNL1        0.0939
     14 N         139.2212  140.2182  168.0991 N.3     1  UNL1       -0.2677
     15 C         140.1351  141.0125  167.2139 C.3     1  UNL1        0.0939
     16 C         140.1045  140.8082  165.7281 C.3     1  UNL1        0.1082
     17 C         139.2518  140.4225  169.5848 C.3     1  UNL1        0.1043
     18 C         140.4879  140.0821  170.3634 C.3     1  UNL1        0.1544
     19 O         140.5450  140.3555  171.8371 O.3     1  UNL1       -0.3805
     20 H         140.5156  141.3129  171.9897 H       1  UNL1        0.2105
     21 C         138.0854  142.6405  157.9457 C.2     1  UNL1        0.2455
     22 N         136.9483  142.5273  156.9741 N.am    1  UNL1       -0.3252
     23 O         138.8951  143.9016  158.0090 O.2     1  UNL1       -0.2703
     24 H         136.4169  141.6996  156.9326 H       1  UNL1        0.1453
     25 H         136.7333  143.2807  156.3780 H       1  UNL1        0.1453
     26 N         138.1467  143.0490  160.9171 N.pl3   1  UNL1       -0.3106
     27 H         137.2669  143.4651  160.7690 H       1  UNL1        0.1523
     28 C         139.1905  143.7673  161.7201 C.ar    1  UNL1        0.0763
     29 C         140.5998  143.8519  161.2136 C.ar    1  UNL1        0.0192
     30 C         141.6435  144.5701  162.0165 C.ar    1  UNL1        0.0311
     31 C         141.2779  145.2037  163.3261 C.ar    1  UNL1        0.1425
     32 F         142.3216  145.9219  164.1291 F       1  UNL1       -0.2041
     33 C         139.8686  145.1191  163.8327 C.ar    1  UNL1        0.0605
     34 C         138.8248  144.4008  163.0296 C.ar    1  UNL1        0.1556
     35 F         137.4155  144.3162  163.5362 F       1  UNL1       -0.2028
     36 O         139.7537  137.1051  163.9729 O.3     1  UNL1       -0.4742
     37 C         142.1396  137.9720  164.5258 C.3     1  UNL1        0.0512
     38 C         141.1787  136.8331  164.3538 C.3     1  UNL1        0.2056
@<TRIPOS>BOND
     1    37    38    1
     2    38    36    1
     3    36     1    1
     4     1     2   ar
     5     2     3   ar
     6     3     4   ar
     7     4     5   ar
     8     5     6   ar
     9     6    21    1
    10    21    22   am
    11    21    23    2
    12     6     7   ar
    13     7    26    1
    14    26    28    1
    15    28    29   ar
    16    29    30   ar
    17    30    31   ar
    18    31    32    1
    19    31    33   ar
    20    33    34   ar
    21    34    35    1
    22     7     8   ar
    23     8     9   ar
    24     9    10   ar
    25    10    11    1
    26    11    12    1
    27    12    13    1
    28    13    14    1
    29    14    17    1
    30    17    18    1
    31    18    19    1
    32    14    15    1
    33    15    16    1
    34    10     1   ar
    35    16    11    1
    36     8     3   ar
    37    34    28   ar
    38    22    24    1
    39    22    25    1
    40    26    27    1
    41    19    20    1
@<TRIPOS>MOLECULE
*****
 38 41 0 0 0
SMALL
GASTEIGER

@<TRIPOS>ATOM
      1 C         144.0742  139.7294  162.9881 C.ar    1  UNL1        0.1532
      2 C         144.3077  139.4260  161.5378 C.ar    1  UNL1        0.0573
      3 C         143.1419  139.1915  160.6235 C.ar    1  UNL1        0.0856
      4 N         143.3755  138.8881  159.1731 N.ar    1  UNL1       -0.2435
      5 C         142.2097  138.6536  158.2587 C.ar    1  UNL1        0.1045
      6 C         140.8104  138.7225  158.7948 C.ar    1  UNL1        0.0856
      7 C         140.5769  139.0259  160.2450 C.ar    1  UNL1        0.0557
      8 C         141.7427  139.2604  161.1594 C.ar    1  UNL1        0.0327
      9 C         141.5092  139.5638  162.6097 C.ar    1  UNL1        0.0203
     10 C         142.6749  139.7983  163.5240 C.ar    1  UNL1        0.0825
     11 N         142.4413  140.1016  164.9744 N.pl3   1  UNL1       -0.3023
     12 C         142.8412  139.1061  166.0227 C.3     1  UNL1        0.1082
     13 C         142.6077  139.4094  167.4730 C.3     1  UNL1        0.0939
     14 N         141.9742  140.7084  167.8751 N.3     1  UNL1       -0.2677
     15 C         141.5743  141.7039  166.8268 C.3     1  UNL1        0.0939
     16 C         141.8079  141.4005  165.3764 C.3     1  UNL1        0.1082
     17 C         141.7407  141.0117  169.3254 C.3     1  UNL1        0.1043
     18 C         142.5997  140.3692  170.3738 C.3     1  UNL1        0.1544
     19 O         142.3215  140.6170  171.8267 O.3     1  UNL1       -0.3805
     20 H         142.4851  141.5507  172.0326 H       1  UNL1        0.2105
     21 C         139.6447  138.4881  157.8804 C.2     1  UNL1        0.2455
     22 N         139.5850  137.2435  157.0452 N.am    1  UNL1       -0.3252
     23 O         138.5385  139.4982  157.8012 O.2     1  UNL1       -0.2703
     24 H         140.3110  136.5806  157.0972 H       1  UNL1        0.1453
     25 H         138.8199  137.0896  156.4451 H       1  UNL1        0.1453
     26 N         139.1776  139.0948  160.7810 N.pl3   1  UNL1       -0.3106
     27 H         138.5904  138.3065  160.7266 H       1  UNL1        0.1523
     28 C         138.6731  140.3647  161.3998 C.ar    1  UNL1        0.0763
     29 C         138.7826  141.6594  160.6501 C.ar    1  UNL1        0.0192
     30 C         138.2782  142.9293  161.2688 C.ar    1  UNL1        0.0311
     31 C         137.6642  142.9046  162.6372 C.ar    1  UNL1        0.1425
     32 F         137.1597  144.1745  163.2559 F       1  UNL1       -0.2041
     33 C         137.5547  141.6100  163.3869 C.ar    1  UNL1        0.0605
     34 C         138.0592  140.3400  162.7681 C.ar    1  UNL1        0.1556
     35 F         137.9497  139.0454  163.5177 F       1  UNL1       -0.2028
     36 O         145.2399  139.9639  163.9025 O.3     1  UNL1       -0.4742
     37 C         145.0765  142.5320  164.2598 C.3     1  UNL1        0.0512
     38 C         145.8943  141.3127  163.9527 C.3     1  UNL1        0.2056
@<TRIPOS>BOND
     1    37    38    1
     2    38    36    1
     3    36     1    1
     4     1     2   ar
     5     2     3   ar
     6     3     4   ar
     7     4     5   ar
     8     5     6   ar
     9     6    21    1
    10    21    22   am
    11    21    23    2
    12     6     7   ar
    13     7    26    1
    14    26    28    1
    15    28    29   ar
    16    29    30   ar
    17    30    31   ar
    18    31    32    1
    19    31    33   ar
    20    33    34   ar
    21    34    35    1
    22     7     8   ar
    23     8     9   ar
    24     9    10   ar
    25    10    11    1
    26    11    12    1
    27    12    13    1
    28    13    14    1
    29    14    17    1
    30    17    18    1
    31    18    19    1
    32    14    15    1
    33    15    16    1
    34    10     1   ar
    35    16    11    1
    36     8     3   ar
    37    34    28   ar
    38    22    24    1
    39    22    25    1
    40    26    27    1
    41    19    20    1
@<TRIPOS>MOLECULE
*****
 38 41 0 0 0
SMALL
GASTEIGER

@<TRIPOS>ATOM
      1 C         143.8123  142.2586  164.6261 C.ar    1  UNL1        0.1532
      2 C         143.6886  142.6588  166.0664 C.ar    1  UNL1        0.0573
      3 C         142.6738  141.9905  166.9459 C.ar    1  UNL1        0.0856
      4 N         142.5501  142.3907  168.3863 N.ar    1  UNL1       -0.2435
      5 C         141.5353  141.7225  169.2658 C.ar    1  UNL1        0.1045
      6 C         140.6441  140.6541  168.7050 C.ar    1  UNL1        0.0856
      7 C         140.7678  140.2539  167.2647 C.ar    1  UNL1        0.0557
      8 C         141.7827  140.9222  166.3851 C.ar    1  UNL1        0.0327
      9 C         141.9064  140.5221  164.9448 C.ar    1  UNL1        0.0203
     10 C         142.9212  141.1903  164.0653 C.ar    1  UNL1        0.0825
     11 N         143.0449  140.7901  162.6249 N.pl3   1  UNL1       -0.3023
     12 C         142.2164  141.4790  161.5813 C.3     1  UNL1        0.1082
     13 C         142.3400  141.0789  160.1410 C.3     1  UNL1        0.0939
     14 N         143.2923  139.9899  159.7442 N.3     1  UNL1       -0.2677
     15 C         144.1208  139.3010  160.7877 C.3     1  UNL1        0.0939
     16 C         143.9971  139.7012  162.2281 C.3     1  UNL1        0.1082
     17 C         143.4159  139.5898  158.3038 C.3     1  UNL1        0.1043
     18 C         144.1543  140.4718  157.3411 C.3     1  UNL1        0.1544
     19 O         145.4589  140.0174  156.7568 O.3     1  UNL1       -0.3805
     20 H         146.1234  139.9532  157.4605 H       1  UNL1        0.2105
     21 C         139.6293  139.9858  169.5845 C.2     1  UNL1        0.2455
     22 N         139.9336  139.7477  171.0339 N.am    1  UNL1       -0.3252
     23 O         138.3101  139.5557  169.0146 O.2     1  UNL1       -0.2703
     24 H         140.7995  140.0300  171.4079 H       1  UNL1        0.1453
     25 H         139.2676  139.3091  171.6111 H       1  UNL1        0.1453
     26 N         139.8767  139.1856  166.7039 N.pl3   1  UNL1       -0.3106
     27 H         139.7300  138.3525  167.2076 H       1  UNL1        0.1523
     28 C         139.2092  139.3865  165.3756 C.ar    1  UNL1        0.0763
     29 C         138.3984  140.6230  165.1232 C.ar    1  UNL1        0.0192
     30 C         137.7309  140.8239  163.7950 C.ar    1  UNL1        0.0311
     31 C         137.8742  139.7884  162.7193 C.ar    1  UNL1        0.1425
     32 F         137.2067  139.9893  161.3911 F       1  UNL1       -0.2041
     33 C         138.6850  138.5519  162.9718 C.ar    1  UNL1        0.0605
     34 C         139.3525  138.3510  164.3000 C.ar    1  UNL1        0.1556
     35 F         140.1633  137.1145  164.5525 F       1  UNL1       -0.2028
     36 O         144.8272  142.9269  163.7465 O.3     1  UNL1       -0.4742
     37 C         143.2245  144.9085  163.2417 C.3     1  UNL1        0.0512
     38 C         144.4236  144.0830  162.8802 C.3     1  UNL1        0.2056
@<TRIPOS>BOND
     1    37    38    1
     2    38    36    1
     3    36     1    1
     4     1     2   ar
     5     2     3   ar
     6     3     4   ar
     7     4     5   ar
     8     5     6   ar
     9     6    21    1
    10    21    22   am
    11    21    23    2
    12     6     7   ar
    13     7    26    1
    14    26    28    1
    15    28    29   ar
    16    29    30   ar
    17    30    31   ar
    18    31    32    1
    19    31    33   ar
    20    33    34   ar
    21    34    35    1
    22     7     8   ar
    23     8     9   ar
    24     9    10   ar
    25    10    11    1
    26    11    12    1
    27    12    13    1
    28    13    14    1
    29    14    17    1
    30    17    18    1
    31    18    19    1
    32    14    15    1
    33    15    16    1
    34    10     1   ar
    35    16    11    1
    36     8     3   ar
    37    34    28   ar
    38    22    24    1
    39    22    25    1
    40    26    27    1
    41    19    20    1
@<TRIPOS>MOLECULE
*****
 38 41 0 0 0
SMALL
GASTEIGER

@<TRIPOS>ATOM
      1 C         138.2453  141.1160  162.4449 C.ar    1  UNL1        0.1532
      2 C         137.7107  140.1991  163.5048 C.ar    1  UNL1        0.0573
      3 C         138.3648  140.1500  164.8538 C.ar    1  UNL1        0.0856
      4 N         137.8301  139.2331  165.9137 N.ar    1  UNL1       -0.2435
      5 C         138.4842  139.1840  167.2627 C.ar    1  UNL1        0.1045
      6 C         139.6731  140.0519  167.5517 C.ar    1  UNL1        0.0856
      7 C         140.2078  140.9688  166.4918 C.ar    1  UNL1        0.0557
      8 C         139.5536  141.0178  165.1429 C.ar    1  UNL1        0.0327
      9 C         140.0883  141.9347  164.0830 C.ar    1  UNL1        0.0203
     10 C         139.4341  141.9838  162.7340 C.ar    1  UNL1        0.0825
     11 N         139.9689  142.9007  161.6741 N.pl3   1  UNL1       -0.3023
     12 C         139.6183  144.3590  161.6974 C.3     1  UNL1        0.1082
     13 C         140.1530  145.2760  160.6376 C.3     1  UNL1        0.0939
     14 N         141.0383  144.7346  159.5543 N.3     1  UNL1       -0.2677
     15 C         141.3888  143.2763  159.5310 C.3     1  UNL1        0.0939
     16 C         140.8540  142.3594  160.5909 C.3     1  UNL1        0.1082
     17 C         141.5729  145.6516  158.4945 C.3     1  UNL1        0.1043
     18 C         140.8235  145.8274  157.2071 C.3     1  UNL1        0.1544
     19 O         139.9636  147.0388  156.9993 O.3     1  UNL1       -0.3805
     20 H         139.2180  147.0162  157.6194 H       1  UNL1        0.2105
     21 C         140.3272  140.0028  168.9007 C.2     1  UNL1        0.2455
     22 N         139.4857  139.9923  170.1423 N.am    1  UNL1       -0.3252
     23 O         141.8230  139.9643  169.0079 O.2     1  UNL1       -0.2703
     24 H         138.5041  140.0176  170.0719 H       1  UNL1        0.1453
     25 H         139.9151  139.9601  171.0277 H       1  UNL1        0.1453
     26 N         141.3966  141.8366  166.7809 N.pl3   1  UNL1       -0.3106
     27 H         141.3720  142.4702  167.5340 H       1  UNL1        0.1523
     28 C         142.6229  141.7390  165.9225 C.ar    1  UNL1        0.0763
     29 C         143.3126  142.9864  165.4554 C.ar    1  UNL1        0.0192
     30 C         144.5388  142.8889  164.5971 C.ar    1  UNL1        0.0311
     31 C         145.0755  141.5438  164.2059 C.ar    1  UNL1        0.1425
     32 F         146.3017  141.4463  163.3476 F       1  UNL1       -0.2041
     33 C         144.3858  140.2964  164.6730 C.ar    1  UNL1        0.0605
     34 C         143.1594  140.3940  165.5314 C.ar    1  UNL1        0.1556
     35 F         142.4697  139.1466  165.9985 F       1  UNL1       -0.2028
     36 O         137.5912  141.1650  161.0960 O.3     1  UNL1       -0.4742
     37 C         138.9846  139.1453  160.2422 C.3     1  UNL1        0.0512
     38 C         137.7824  140.0352  160.1282 C.3     1  UNL1        0.2056
@<TRIPOS>BOND
     1    37    38    1
     2    38    36    1
     3    36     1    1
     4     1     2   ar
     5     2     3   ar
     6     3     4   ar
     7     4     5   ar
     8     5     6   ar
     9     6    21    1
    10    21    22   am
    11    21    23    2
    12     6     7   ar
    13     7    26    1
    14    26    28    1
    15    28    29   ar
    16    29    30   ar
    17    30    31   ar
    18    31    32    1
    19    31    33   ar
    20    33    34   ar
    21    34    35    1
    22     7     8   ar
    23     8     9   ar
    24     9    10   ar
    25    10    11    1
    26    11    12    1
    27    12    13    1
    28    13    14    1
    29    14    17    1
    30    17    18    1
    31    18    19    1
    32    14    15    1
    33    15    16    1
    34    10     1   ar
    35    16    11    1
    36     8     3   ar
    37    34    28   ar
    38    22    24    1
    39    22    25    1
    40    26    27    1
    41    19    20    1
@<TRIPOS>MOLECULE
*****
 38 41 0 0 0
SMALL
GASTEIGER

@<TRIPOS>ATOM
      1 C         138.6896  141.5893  163.8258 C.ar    1  UNL1        0.1532
      2 C         138.1684  141.8236  162.4390 C.ar    1  UNL1        0.0573
      3 C         138.9659  142.6406  161.4661 C.ar    1  UNL1        0.0856
      4 N         138.4447  142.8748  160.0792 N.ar    1  UNL1       -0.2435
      5 C         139.2422  143.6918  159.1063 C.ar    1  UNL1        0.1045
      6 C         140.5610  144.2745  159.5204 C.ar    1  UNL1        0.0856
      7 C         141.0822  144.0402  160.9072 C.ar    1  UNL1        0.0557
      8 C         140.2847  143.2233  161.8801 C.ar    1  UNL1        0.0327
      9 C         140.8059  142.9890  163.2669 C.ar    1  UNL1        0.0203
     10 C         140.0083  142.1720  164.2398 C.ar    1  UNL1        0.0825
     11 N         140.5296  141.9377  165.6267 N.pl3   1  UNL1       -0.3023
     12 C         140.1518  142.8720  166.7377 C.3     1  UNL1        0.1082
     13 C         140.6730  142.6378  168.1246 C.3     1  UNL1        0.0939
     14 N         141.5721  141.4692  168.4005 N.3     1  UNL1       -0.2677
     15 C         141.9499  140.5348  167.2895 C.3     1  UNL1        0.0939
     16 C         141.4286  140.7691  165.9026 C.3     1  UNL1        0.1082
     17 C         142.0933  141.2349  169.7874 C.3     1  UNL1        0.1043
     18 C         141.3848  141.8341  170.9660 C.3     1  UNL1        0.1544
     19 O         142.1741  142.4702  172.0716 O.3     1  UNL1       -0.3805
     20 H         142.6993  141.7925  172.5252 H       1  UNL1        0.2105
     21 C         141.3585  145.0915  158.5475 C.2     1  UNL1        0.2455
     22 N         140.7038  146.2121  157.7954 N.am    1  UNL1       -0.3252
     23 O         142.8108  144.7879  158.3267 O.2     1  UNL1       -0.2703
     24 H         139.7506  146.4114  157.9404 H       1  UNL1        0.1453
     25 H         141.2272  146.7483  157.1569 H       1  UNL1        0.1453
     26 N         142.4009  144.6229  161.3212 N.pl3   1  UNL1       -0.3106
     27 H         142.6018  145.5684  161.1341 H       1  UNL1        0.1523
     28 C         143.4136  143.7651  162.0202 C.ar    1  UNL1        0.0763
     29 C         143.9496  142.5370  161.3460 C.ar    1  UNL1        0.0192
     30 C         144.9623  141.6792  162.0450 C.ar    1  UNL1        0.0311
     31 C         145.4390  142.0495  163.4182 C.ar    1  UNL1        0.1425
     32 F         146.4517  141.1916  164.1172 F       1  UNL1       -0.2041
     33 C         144.9031  143.2775  164.0924 C.ar    1  UNL1        0.0605
     34 C         143.8903  144.1354  163.3934 C.ar    1  UNL1        0.1556
     35 F         143.3544  145.3635  164.0676 F       1  UNL1       -0.2028
     36 O         137.8921  140.7723  164.7987 O.3     1  UNL1       -0.4742
     37 C         138.1275  138.7747  166.4431 C.3     1  UNL1        0.0512
     38 C         138.2663  139.3438  165.0622 C.3     1  UNL1        0.2056
@<TRIPOS>BOND
     1    37    38    1
     2    38    36    1
     3    36     1    1
     4     1     2   ar
     5     2     3   ar
     6     3     4   ar
     7     4     5   ar
     8     5     6   ar
     9     6    21    1
    10    21    22   am
    11    21    23    2
    12     6     7   ar
    13     7    26    1
    14    26    28    1
    15    28    29   ar
    16    29    30   ar
    17    30    31   ar
    18    31    32    1
    19    31    33   ar
    20    33    34   ar
    21    34    35    1
    22     7     8   ar
    23     8     9   ar
    24     9    10   ar
    25    10    11    1
    26    11    12    1
    27    12    13    1
    28    13    14    1
    29    14    17    1
    30    17    18    1
    31    18    19    1
    32    14    15    1
    33    15    16    1
    34    10     1   ar
    35    16    11    1
    36     8     3   ar
    37    34    28   ar
    38    22    24    1
    39    22    25    1
    40    26    27    1
    41    19    20    1
@<TRIPOS>MOLECULE
*****
 38 41 0 0 0
SMALL
GASTEIGER

@<TRIPOS>ATOM
      1 C         138.9073  139.4944  164.5744 C.ar    1  UNL1        0.1532
      2 C         138.5270  138.9060  163.2480 C.ar    1  UNL1        0.0573
      3 C         139.5531  138.7812  162.1610 C.ar    1  UNL1        0.0856
      4 N         139.1727  138.1928  160.8346 N.ar    1  UNL1       -0.2435
      5 C         140.1987  138.0681  159.7476 C.ar    1  UNL1        0.1045
      6 C         141.6051  138.5317  159.9869 C.ar    1  UNL1        0.0856
      7 C         141.9854  139.1200  161.3132 C.ar    1  UNL1        0.0557
      8 C         140.9594  139.2448  162.4003 C.ar    1  UNL1        0.0327
      9 C         141.3397  139.8332  163.7266 C.ar    1  UNL1        0.0203
     10 C         140.3136  139.9579  164.8136 C.ar    1  UNL1        0.0825
     11 N         140.6940  140.5463  166.1400 N.pl3   1  UNL1       -0.3023
     12 C         141.4053  139.7046  167.1576 C.3     1  UNL1        0.1082
     13 C         141.7856  140.2929  168.4839 C.3     1  UNL1        0.0939
     14 N         141.4547  141.7230  168.7927 N.3     1  UNL1       -0.2677
     15 C         140.7434  142.5648  167.7751 C.3     1  UNL1        0.0939
     16 C         140.3630  141.9764  166.4487 C.3     1  UNL1        0.1082
     17 C         141.8350  142.3114  170.1190 C.3     1  UNL1        0.1043
     18 C         143.1952  142.9144  170.3097 C.3     1  UNL1        0.1544
     19 O         143.3849  144.0469  171.2748 O.3     1  UNL1       -0.3805
     20 H         142.9046  144.8271  170.9562 H       1  UNL1        0.2105
     21 C         142.6312  138.4069  158.8998 C.2     1  UNL1        0.2455
     22 N         142.5981  137.2315  157.9686 N.am    1  UNL1       -0.3252
     23 O         143.6904  139.4576  158.7441 O.2     1  UNL1       -0.2703
     24 H         141.9029  136.5419  158.0708 H       1  UNL1        0.1453
     25 H         143.2715  137.1496  157.2551 H       1  UNL1        0.1453
     26 N         143.3917  139.5836  161.5525 N.pl3   1  UNL1       -0.3106
     27 H         144.1383  138.9452  161.4872 H       1  UNL1        0.1523
     28 C         143.6606  141.0200  161.8913 C.ar    1  UNL1        0.0763
     29 C         142.9637  142.1120  161.1352 C.ar    1  UNL1        0.0192
     30 C         143.2325  143.5483  161.4740 C.ar    1  UNL1        0.0311
     31 C         144.1983  143.8926  162.5689 C.ar    1  UNL1        0.1425
     32 F         144.4671  145.3288  162.9077 F       1  UNL1       -0.2041
     33 C         144.8952  142.8005  163.3250 C.ar    1  UNL1        0.0605
     34 C         144.6263  141.3642  162.9862 C.ar    1  UNL1        0.1556
     35 F         145.3233  140.2721  163.7423 F       1  UNL1       -0.2028
     36 O         137.8813  139.6191  165.6614 O.3     1  UNL1       -0.4742
     37 C         137.6985  137.1830  166.5455 C.3     1  UNL1        0.0512
     38 C         137.8790  138.6492  166.8056 C.3     1  UNL1        0.2056
@<TRIPOS>BOND
     1    37    38    1
     2    38    36    1
     3    36     1    1
     4     1     2   ar
     5     2     3   ar
     6     3     4   ar
     7     4     5   ar
     8     5     6   ar
     9     6    21    1
    10    21    22   am
    11    21    23    2
    12     6     7   ar
    13     7    26    1
    14    26    28    1
    15    28    29   ar
    16    29    30   ar
    17    30    31   ar
    18    31    32    1
    19    31    33   ar
    20    33    34   ar
    21    34    35    1
    22     7     8   ar
    23     8     9   ar
    24     9    10   ar
    25    10    11    1
    26    11    12    1
    27    12    13    1
    28    13    14    1
    29    14    17    1
    30    17    18    1
    31    18    19    1
    32    14    15    1
    33    15    16    1
    34    10     1   ar
    35    16    11    1
    36     8     3   ar
    37    34    28   ar
    38    22    24    1
    39    22    25    1
    40    26    27    1
    41    19    20    1
@<TRIPOS>MOLECULE
*****
 38 41 0 0 0
SMALL
GASTEIGER

@<TRIPOS>ATOM
      1 C         141.7770  138.6168  164.4575 C.ar    1  UNL1        0.1532
      2 C         141.9788  138.0263  163.0935 C.ar    1  UNL1        0.0573
      3 C         141.1636  138.5191  161.9348 C.ar    1  UNL1        0.0856
      4 N         141.3654  137.9285  160.5708 N.ar    1  UNL1       -0.2435
      5 C         140.5501  138.4213  159.4121 C.ar    1  UNL1        0.1045
      6 C         139.5330  139.5045  159.6175 C.ar    1  UNL1        0.0856
      7 C         139.3312  140.0950  160.9815 C.ar    1  UNL1        0.0557
      8 C         140.1465  139.6023  162.1402 C.ar    1  UNL1        0.0327
      9 C         139.9447  140.1927  163.5042 C.ar    1  UNL1        0.0203
     10 C         140.7600  139.7000  164.6629 C.ar    1  UNL1        0.0825
     11 N         140.5582  140.2905  166.0269 N.pl3   1  UNL1       -0.3023
     12 C         139.6499  139.6137  167.0103 C.3     1  UNL1        0.1082
     13 C         139.4481  140.2041  168.3743 C.3     1  UNL1        0.0939
     14 N         140.1545  141.4715  168.7550 N.3     1  UNL1       -0.2677
     15 C         141.0627  142.1483  167.7717 C.3     1  UNL1        0.0939
     16 C         141.2645  141.5578  166.4076 C.3     1  UNL1        0.1082
     17 C         139.9526  142.0620  170.1190 C.3     1  UNL1        0.1043
     18 C         140.7024  141.5084  171.2944 C.3     1  UNL1        0.1544
     19 O         141.9178  142.2195  171.8111 O.3     1  UNL1       -0.3805
     20 H         142.6193  142.1887  171.1420 H       1  UNL1        0.2105
     21 C         138.7177  139.9973  158.4588 C.2     1  UNL1        0.2455
     22 N         139.3749  140.2562  157.1356 N.am    1  UNL1       -0.3252
     23 O         137.2452  140.2311  158.6234 O.2     1  UNL1       -0.2703
     24 H         140.3414  140.1027  157.0275 H       1  UNL1        0.1453
     25 H         138.8398  140.5796  156.3751 H       1  UNL1        0.1453
     26 N         138.3142  141.1782  161.1868 N.pl3   1  UNL1       -0.3106
     27 H         137.3538  140.9629  161.1615 H       1  UNL1        0.1523
     28 C         138.7603  142.5894  161.4308 C.ar    1  UNL1        0.0763
     29 C         139.7634  143.2276  160.5162 C.ar    1  UNL1        0.0192
     30 C         140.2096  144.6388  160.7601 C.ar    1  UNL1        0.0311
     31 C         139.6525  145.4119  161.9187 C.ar    1  UNL1        0.1425
     32 F         140.0987  146.8230  162.1626 F       1  UNL1       -0.2041
     33 C         138.6494  144.7737  162.8332 C.ar    1  UNL1        0.0605
     34 C         138.2033  143.3625  162.5893 C.ar    1  UNL1        0.1556
     35 F         137.2001  142.7243  163.5038 F       1  UNL1       -0.2028
     36 O         142.5923  138.1240  165.6162 O.3     1  UNL1       -0.4742
     37 C         144.6427  139.4620  164.7469 C.3     1  UNL1        0.0512
     38 C         144.0089  138.5865  165.7870 C.3     1  UNL1        0.2056
@<TRIPOS>BOND
     1    37    38    1
     2    38    36    1
     3    36     1    1
     4     1     2   ar
     5     2     3   ar
     6     3     4   ar
     7     4     5   ar
     8     5     6   ar
     9     6    21    1
    10    21    22   am
    11    21    23    2
    12     6     7   ar
    13     7    26    1
    14    26    28    1
    15    28    29   ar
    16    29    30   ar
    17    30    31   ar
    18    31    32    1
    19    31    33   ar
    20    33    34   ar
    21    34    35    1
    22     7     8   ar
    23     8     9   ar
    24     9    10   ar
    25    10    11    1
    26    11    12    1
    27    12    13    1
    28    13    14    1
    29    14    17    1
    30    17    18    1
    31    18    19    1
    32    14    15    1
    33    15    16    1
    34    10     1   ar
    35    16    11    1
    36     8     3   ar
    37    34    28   ar
    38    22    24    1
    39    22    25    1
    40    26    27    1
    41    19    20    1
@<TRIPOS>MOLECULE
*****
 38 41 0 0 0
SMALL
GASTEIGER

@<TRIPOS>ATOM
      1 C         139.8494  143.8053  164.9945 C.ar    1  UNL1        0.1532
      2 C         139.5912  143.5865  166.4558 C.ar    1  UNL1        0.0573
      3 C         140.4023  142.5813  167.2185 C.ar    1  UNL1        0.0856
      4 N         140.1440  142.3626  168.6799 N.ar    1  UNL1       -0.2435
      5 C         140.9552  141.3574  169.4426 C.ar    1  UNL1        0.1045
      6 C         142.0245  140.5710  168.7439 C.ar    1  UNL1        0.0856
      7 C         142.2827  140.7898  167.2826 C.ar    1  UNL1        0.0557
      8 C         141.4716  141.7949  166.5199 C.ar    1  UNL1        0.0327
      9 C         141.7298  142.0137  165.0586 C.ar    1  UNL1        0.0203
     10 C         140.9187  143.0189  164.2959 C.ar    1  UNL1        0.0825
     11 N         141.1769  143.2376  162.8345 N.pl3   1  UNL1       -0.3023
     12 C         140.8712  142.1499  161.8479 C.3     1  UNL1        0.1082
     13 C         141.1294  142.3686  160.3866 C.3     1  UNL1        0.0939
     14 N         141.6934  143.6750  159.9119 N.3     1  UNL1       -0.2677
     15 C         141.9991  144.7627  160.8985 C.3     1  UNL1        0.0939
     16 C         141.7409  144.5440  162.3599 C.3     1  UNL1        0.1082
     17 C         141.9516  143.8937  158.4506 C.3     1  UNL1        0.1043
     18 C         141.5885  145.2017  157.8123 C.3     1  UNL1        0.1544
     19 O         142.6013  146.3055  157.7356 O.3     1  UNL1       -0.3805
     20 H         142.8112  146.6144  158.6308 H       1  UNL1        0.2105
     21 C         142.8357  139.5658  169.5066 C.2     1  UNL1        0.2455
     22 N         143.2395  139.8476  170.9235 N.am    1  UNL1       -0.3252
     23 O         143.2430  138.2789  168.8524 O.2     1  UNL1       -0.2703
     24 H         142.9722  140.6922  171.3528 H       1  UNL1        0.1453
     25 H         143.7719  139.1878  171.4240 H       1  UNL1        0.1453
     26 N         143.3520  140.0034  166.5840 N.pl3   1  UNL1       -0.3106
     27 H         144.2517  139.9374  166.9784 H       1  UNL1        0.1523
     28 C         143.0507  139.3174  165.2845 C.ar    1  UNL1        0.0763
     29 C         141.8360  138.4460  165.1605 C.ar    1  UNL1        0.0192
     30 C         141.5346  137.7600  163.8610 C.ar    1  UNL1        0.0311
     31 C         142.4479  137.9454  162.6856 C.ar    1  UNL1        0.1425
     32 F         142.1465  137.2594  161.3861 F       1  UNL1       -0.2041
     33 C         143.6625  138.8168  162.8096 C.ar    1  UNL1        0.0605
     34 C         143.9639  139.5027  164.1091 C.ar    1  UNL1        0.1556
     35 F         145.1786  140.3741  164.2332 F       1  UNL1       -0.2028
     36 O         139.0382  144.8104  164.2318 O.3     1  UNL1       -0.4742
     37 C         137.5394  142.9006  163.3066 C.3     1  UNL1        0.0512
     38 C         137.9015  144.3551  163.3656 C.3     1  UNL1        0.2056
@<TRIPOS>BOND
     1    37    38    1
     2    38    36    1
     3    36     1    1
     4     1     2   ar
     5     2     3   ar
     6     3     4   ar
     7     4     5   ar
     8     5     6   ar
     9     6    21    1
    10    21    22   am
    11    21    23    2
    12     6     7   ar
    13     7    26    1
    14    26    28    1
    15    28    29   ar
    16    29    30   ar
    17    30    31   ar
    18    31    32    1
    19    31    33   ar
    20    33    34   ar
    21    34    35    1
    22     7     8   ar
    23     8     9   ar
    24     9    10   ar
    25    10    11    1
    26    11    12    1
    27    12    13    1
    28    13    14    1
    29    14    17    1
    30    17    18    1
    31    18    19    1
    32    14    15    1
    33    15    16    1
    34    10     1   ar
    35    16    11    1
    36     8     3   ar
    37    34    28   ar
    38    22    24    1
    39    22    25    1
    40    26    27    1
    41    19    20    1
