@<TRIPOS>MOLECULE
*****
 39 44 0 0 0
SMALL
GASTEIGER

@<TRIPOS>ATOM
      1 C         144.2091  141.2946  161.6451 C.ar    1  UNL1        0.1801
      2 N         145.3902  142.1999  161.8333 N.ar    1  UNL1       -0.0614
      3 O         145.3989  142.6598  163.2610 O.2     1  UNL1       -0.3498
      4 C         144.2232  142.0387  163.9553 C.ar    1  UNL1        0.2065
      5 C         143.7272  142.1324  165.3678 C.ar    1  UNL1        0.1899
      6 F         144.4626  142.9761  166.3664 F       1  UNL1       -0.1996
      7 C         142.4958  141.3823  165.7817 C.ar    1  UNL1        0.0749
      8 C         141.7605  140.5386  164.7830 C.ar    1  UNL1       -0.0053
      9 C         142.2565  140.4449  163.3704 C.ar    1  UNL1        0.0032
     10 C         143.4878  141.1949  162.9566 C.ar    1  UNL1        0.0744
     11 C         140.5292  139.7886  165.1968 C.3     1  UNL1        0.0468
     12 C         140.0332  139.8823  166.6093 C.3     1  UNL1        0.1606
     13 C         139.2979  139.0386  165.6106 C.2     1  UNL1        0.2387
     14 O         139.7938  138.9449  164.1981 O.2     1  UNL1       -0.2741
     15 N         138.0665  138.2885  166.0245 N.am    1  UNL1       -0.2389
     16 C         137.5705  138.3823  167.4370 C.2     1  UNL1        0.3122
     17 O         136.3391  137.6322  167.8509 O.2     1  UNL1       -0.2520
     18 N         138.3059  139.2260  168.4357 N.am    1  UNL1       -0.2389
     19 C         139.5372  139.9760  168.0219 C.2     1  UNL1        0.2387
     20 O         139.7881  140.3624  168.6725 O.2     1  UNL1       -0.2741
     21 C         140.7686  140.7260  167.6080 C.3     1  UNL1        0.1166
     22 C         140.2726  140.8197  169.0205 C.3     1  UNL1        0.1341
     23 C         139.0412  140.0697  169.4344 C.3     1  UNL1        0.0338
     24 O         141.0079  141.6635  170.0192 O.3     1  UNL1       -0.3553
     25 C         142.2393  142.4135  169.6053 C.3     1  UNL1        0.1349
     26 C         142.9747  143.2573  170.6040 C.3     1  UNL1        0.0339
     27 C         142.7352  142.3198  168.1928 C.3     1  UNL1        0.1205
     28 N         141.9999  141.4761  167.1942 N.pl3   1  UNL1       -0.3019
     29 H         137.5838  137.7348  165.3691 H       1  UNL1        0.1591
     30 H         137.9804  139.2875  169.3628 H       1  UNL1        0.1591
     31 C         143.0783  138.9235  158.7877 C.3     1  UNL1        0.1060
     32 C         143.3654  139.1853  160.2366 C.3     1  UNL1        0.1143
     33 N         143.8178  140.6092  160.3695 N.am    1  UNL1       -0.2317
     34 C         143.8104  141.2275  159.0029 C.2     1  UNL1        0.2812
     35 O         144.1928  142.6397  158.6719 O.2     1  UNL1       -0.2623
     36 S         143.3533  140.1857  158.0253 S.3     1  UNL1       -0.0534
     37 C         142.6002  137.6272  158.2038 C.3     1  UNL1        0.1552
     38 C         143.0120  135.5999  156.6321 C.3     1  UNL1        0.1741
     39 O         143.3479  136.9955  157.0671 O.3     1  UNL1       -0.3501
@<TRIPOS>BOND
     1    38    39    1
     2    39    37    1
     3    31    37    1
     4    31    32    1
     5    32    33    1
     6    33     1    1
     7     1     2   ar
     8     2     3   ar
     9     3     4   ar
    10     4     5   ar
    11     5     6    1
    12     5     7   ar
    13     7     8   ar
    14     8     9   ar
    15     9    10   ar
    16     8    11    1
    17    11    12    1
    18    12    13    1
    19    13    14    2
    20    13    15   am
    21    15    16   am
    22    16    17    2
    23    16    18   am
    24    18    19   am
    25    19    20    2
    26    21    12    1
    27    21    22    1
    28    22    23    1
    29    22    24    1
    30    24    25    1
    31    25    26    1
    32    25    27    1
    33    27    28    1
    34    33    34   am
    35    34    35    2
    36    34    36    1
    37    36    31    1
    38    10     1   ar
    39    19    12    1
    40    28    21    1
    41    10     4   ar
    42    28     7    1
    43    15    29    1
    44    18    30    1
@<TRIPOS>MOLECULE
*****
 39 44 0 0 0
SMALL
GASTEIGER

@<TRIPOS>ATOM
      1 C         144.0327  141.1415  161.5374 C.ar    1  UNL1        0.1801
      2 N         145.2357  142.0267  161.6763 N.ar    1  UNL1       -0.0614
      3 O         145.2956  142.5080  163.0957 O.2     1  UNL1       -0.3498
      4 C         144.1296  141.9204  163.8340 C.ar    1  UNL1        0.2065
      5 C         143.6777  142.0452  165.2588 C.ar    1  UNL1        0.1899
      6 F         144.4582  142.8898  166.2219 F       1  UNL1       -0.1996
      7 C         142.4453  141.3255  165.7206 C.ar    1  UNL1        0.0749
      8 C         141.6648  140.4809  164.7575 C.ar    1  UNL1       -0.0053
      9 C         142.1167  140.3561  163.3326 C.ar    1  UNL1        0.0032
     10 C         143.3491  141.0758  162.8709 C.ar    1  UNL1        0.0744
     11 C         140.4324  139.7612  165.2193 C.3     1  UNL1        0.0468
     12 C         139.9806  139.8860  166.6441 C.3     1  UNL1        0.1606
     13 C         139.2001  139.0415  165.6810 C.2     1  UNL1        0.2387
     14 O         139.6519  138.9167  164.2562 O.2     1  UNL1       -0.2741
     15 N         137.9676  138.3217  166.1428 N.am    1  UNL1       -0.2389
     16 C         137.5158  138.4466  167.5676 C.2     1  UNL1        0.3122
     17 O         136.2833  137.7268  168.0294 O.2     1  UNL1       -0.2520
     18 N         138.2963  139.2911  168.5307 N.am    1  UNL1       -0.2389
     19 C         139.5286  140.0108  168.0690 C.2     1  UNL1        0.2387
     20 O         139.8060  140.4022  168.7057 O.2     1  UNL1       -0.2741
     21 C         140.7610  140.7306  167.6072 C.3     1  UNL1        0.1166
     22 C         140.3091  140.8554  169.0321 C.3     1  UNL1        0.1341
     23 C         139.0768  140.1357  169.4938 C.3     1  UNL1        0.0338
     24 O         141.0896  141.6999  169.9952 O.3     1  UNL1       -0.3553
     25 C         142.3220  142.4197  169.5334 C.3     1  UNL1        0.1349
     26 C         143.1025  143.2642  170.4965 C.3     1  UNL1        0.0339
     27 C         142.7739  142.2948  168.1086 C.3     1  UNL1        0.1205
     28 N         141.9934  141.4503  167.1455 N.pl3   1  UNL1       -0.3019
     29 H         137.4553  137.7674  165.5107 H       1  UNL1        0.1591
     30 H         137.9997  139.3731  169.4659 H       1  UNL1        0.1591
     31 C         142.7641  140.0351  158.0399 C.3     1  UNL1        0.1060
     32 C         143.0935  141.1082  159.0350 C.3     1  UNL1        0.1143
     33 N         143.5909  140.4444  160.2848 N.am    1  UNL1       -0.2317
     34 C         143.5689  138.9612  160.0622 C.2     1  UNL1        0.2812
     35 O         143.9849  137.9147  161.0530 O.2     1  UNL1       -0.2623
     36 S         143.0579  138.7082  158.6748 S.3     1  UNL1       -0.0534
     37 C         142.2339  140.2511  156.6535 C.3     1  UNL1        0.1552
     38 C         139.7507  140.2107  157.4164 C.3     1  UNL1        0.1741
     39 O         140.7872  139.9908  156.3547 O.3     1  UNL1       -0.3501
@<TRIPOS>BOND
     1    38    39    1
     2    39    37    1
     3    31    37    1
     4    31    32    1
     5    32    33    1
     6    33     1    1
     7     1     2   ar
     8     2     3   ar
     9     3     4   ar
    10     4     5   ar
    11     5     6    1
    12     5     7   ar
    13     7     8   ar
    14     8     9   ar
    15     9    10   ar
    16     8    11    1
    17    11    12    1
    18    12    13    1
    19    13    14    2
    20    13    15   am
    21    15    16   am
    22    16    17    2
    23    16    18   am
    24    18    19   am
    25    19    20    2
    26    21    12    1
    27    21    22    1
    28    22    23    1
    29    22    24    1
    30    24    25    1
    31    25    26    1
    32    25    27    1
    33    27    28    1
    34    33    34   am
    35    34    35    2
    36    34    36    1
    37    36    31    1
    38    10     1   ar
    39    19    12    1
    40    28    21    1
    41    10     4   ar
    42    28     7    1
    43    15    29    1
    44    18    30    1
@<TRIPOS>MOLECULE
*****
 39 44 0 0 0
SMALL
GASTEIGER

@<TRIPOS>ATOM
      1 C         140.0538  144.2324  161.5803 C.ar    1  UNL1        0.1801
      2 N         139.1599  145.3995  161.8785 N.ar    1  UNL1       -0.0614
      3 O         138.9368  145.4455  163.3611 O.2     1  UNL1       -0.3498
      4 C         139.6929  144.3069  163.9792 C.ar    1  UNL1        0.2065
      5 C         139.8419  143.8560  165.4020 C.ar    1  UNL1        0.1899
      6 F         139.1516  144.6057  166.5027 F       1  UNL1       -0.1996
      7 C         140.6814  142.6553  165.7243 C.ar    1  UNL1        0.0749
      8 C         141.3717  141.9056  164.6237 C.ar    1  UNL1       -0.0053
      9 C         141.2227  142.3566  163.2008 C.ar    1  UNL1        0.0032
     10 C         140.3833  143.5572  162.8786 C.ar    1  UNL1        0.0744
     11 C         142.2111  140.7050  164.9459 C.3     1  UNL1        0.0468
     12 C         142.3602  140.2540  166.3687 C.3     1  UNL1        0.1606
     13 C         143.0505  139.5043  165.2681 C.2     1  UNL1        0.2387
     14 O         142.9015  139.9553  163.8453 O.2     1  UNL1       -0.2741
     15 N         143.8899  138.3036  165.5903 N.am    1  UNL1       -0.2389
     16 C         144.0390  137.8527  167.0131 C.2     1  UNL1        0.3122
     17 O         144.8784  136.6520  167.3354 O.2     1  UNL1       -0.2520
     18 N         143.3486  138.6024  168.1137 N.am    1  UNL1       -0.2389
     19 C         142.5092  139.8031  167.7916 C.2     1  UNL1        0.2387
     20 O         142.2266  140.0670  168.4887 O.2     1  UNL1       -0.2741
     21 C         141.6698  141.0038  167.4693 C.3     1  UNL1        0.1166
     22 C         141.8189  140.5528  168.8922 C.3     1  UNL1        0.1341
     23 C         142.6583  139.3521  169.2144 C.3     1  UNL1        0.0338
     24 O         141.1285  141.3025  169.9928 O.3     1  UNL1       -0.3553
     25 C         140.2891  142.5032  169.6705 C.3     1  UNL1        0.1349
     26 C         139.5987  143.2529  170.7711 C.3     1  UNL1        0.0339
     27 C         140.1401  142.9541  168.2477 C.3     1  UNL1        0.1205
     28 N         140.8304  142.2044  167.1471 N.pl3   1  UNL1       -0.3019
     29 H         144.3430  137.8116  164.8680 H       1  UNL1        0.1591
     30 H         143.4464  138.3065  169.0476 H       1  UNL1        0.1591
     31 C         141.9647  143.4030  158.3053 C.3     1  UNL1        0.1060
     32 C         141.9355  143.9447  159.7038 C.3     1  UNL1        0.1143
     33 N         140.5341  143.8141  160.2223 N.am    1  UNL1       -0.2317
     34 C         139.6971  143.1916  159.1443 C.2     1  UNL1        0.2812
     35 O         138.2331  142.8781  159.2351 O.2     1  UNL1       -0.2623
     36 S         140.5813  142.9375  157.9596 S.3     1  UNL1       -0.0534
     37 C         143.1663  143.3381  157.4098 C.3     1  UNL1        0.1552
     38 C         144.0613  141.2252  158.6283 C.3     1  UNL1        0.1741
     39 O         144.2975  142.4095  157.7387 O.3     1  UNL1       -0.3501
@<TRIPOS>BOND
     1    38    39    1
     2    39    37    1
     3    31    37    1
     4    31    32    1
     5    32    33    1
     6    33     1    1
     7     1     2   ar
     8     2     3   ar
     9     3     4   ar
    10     4     5   ar
    11     5     6    1
    12     5     7   ar
    13     7     8   ar
    14     8     9   ar
    15     9    10   ar
    16     8    11    1
    17    11    12    1
    18    12    13    1
    19    13    14    2
    20    13    15   am
    21    15    16   am
    22    16    17    2
    23    16    18   am
    24    18    19   am
    25    19    20    2
    26    21    12    1
    27    21    22    1
    28    22    23    1
    29    22    24    1
    30    24    25    1
    31    25    26    1
    32    25    27    1
    33    27    28    1
    34    33    34   am
    35    34    35    2
    36    34    36    1
    37    36    31    1
    38    10     1   ar
    39    19    12    1
    40    28    21    1
    41    10     4   ar
    42    28     7    1
    43    15    29    1
    44    18    30    1
@<TRIPOS>MOLECULE
*****
 39 44 0 0 0
SMALL
GASTEIGER

@<TRIPOS>ATOM
      1 C         142.9881  138.5123  157.6261 C.ar    1  UNL1        0.1801
      2 N         144.1434  139.3271  157.1247 N.ar    1  UNL1       -0.0614
      3 O         144.5753  140.2469  158.2281 O.2     1  UNL1       -0.3498
      4 C         143.6870  140.0005  159.4114 C.ar    1  UNL1        0.2065
      5 C         143.6446  140.6139  160.7796 C.ar    1  UNL1        0.1899
      6 F         144.6255  141.6859  161.1516 F       1  UNL1       -0.1996
      7 C         142.6212  140.1551  161.7758 C.ar    1  UNL1        0.0749
      8 C         141.6403  139.0831  161.4037 C.ar    1  UNL1       -0.0053
      9 C         141.6827  138.4697  160.0354 C.ar    1  UNL1        0.0032
     10 C         142.7060  138.9285  159.0393 C.ar    1  UNL1        0.0744
     11 C         140.6169  138.6243  162.3998 C.3     1  UNL1        0.0468
     12 C         140.5745  139.2377  163.7680 C.3     1  UNL1        0.1606
     13 C         139.5936  138.1656  163.3960 C.2     1  UNL1        0.2387
     14 O         139.6360  137.5523  162.0278 O.2     1  UNL1       -0.2741
     15 N         138.5702  137.7069  164.3922 N.am    1  UNL1       -0.2389
     16 C         138.5278  138.3202  165.7603 C.2     1  UNL1        0.3122
     17 O         137.5044  137.8615  166.7566 O.2     1  UNL1       -0.2520
     18 N         139.5088  139.3923  166.1324 N.am    1  UNL1       -0.2389
     19 C         140.5321  139.8510  165.1363 C.2     1  UNL1        0.2387
     20 O         140.9588  140.4153  165.5037 O.2     1  UNL1       -0.2741
     21 C         141.5555  140.3097  164.1401 C.3     1  UNL1        0.1166
     22 C         141.5130  140.9231  165.5084 C.3     1  UNL1        0.1341
     23 C         140.4897  140.4643  166.5045 C.3     1  UNL1        0.0338
     24 O         142.4940  141.9951  165.8804 O.3     1  UNL1       -0.3553
     25 C         143.5174  142.4538  164.8842 C.3     1  UNL1        0.1349
     26 C         144.4983  143.5259  165.2563 C.3     1  UNL1        0.0339
     27 C         143.5598  141.8405  163.5160 C.3     1  UNL1        0.1205
     28 N         142.5788  140.7685  163.1440 N.pl3   1  UNL1       -0.3019
     29 H         137.9264  137.0033  164.1480 H       1  UNL1        0.1591
     30 H         139.4809  139.7948  167.0304 H       1  UNL1        0.1591
     31 C         141.6872  135.3891  155.7237 C.3     1  UNL1        0.1060
     32 C         142.7553  136.0980  156.5028 C.3     1  UNL1        0.1143
     33 N         142.2453  137.4651  156.8504 N.am    1  UNL1       -0.2317
     34 C         140.8621  137.6013  156.2862 C.2     1  UNL1        0.2812
     35 O         139.9790  138.8085  156.3986 O.2     1  UNL1       -0.2623
     36 S         140.5172  136.3183  155.5899 S.3     1  UNL1       -0.0534
     37 C         141.7739  133.9959  155.1748 C.3     1  UNL1        0.1552
     38 C         142.9505  132.3394  156.7939 C.3     1  UNL1        0.1741
     39 O         141.7089  132.8189  156.1025 O.3     1  UNL1       -0.3501
@<TRIPOS>BOND
     1    38    39    1
     2    39    37    1
     3    31    37    1
     4    31    32    1
     5    32    33    1
     6    33     1    1
     7     1     2   ar
     8     2     3   ar
     9     3     4   ar
    10     4     5   ar
    11     5     6    1
    12     5     7   ar
    13     7     8   ar
    14     8     9   ar
    15     9    10   ar
    16     8    11    1
    17    11    12    1
    18    12    13    1
    19    13    14    2
    20    13    15   am
    21    15    16   am
    22    16    17    2
    23    16    18   am
    24    18    19   am
    25    19    20    2
    26    21    12    1
    27    21    22    1
    28    22    23    1
    29    22    24    1
    30    24    25    1
    31    25    26    1
    32    25    27    1
    33    27    28    1
    34    33    34   am
    35    34    35    2
    36    34    36    1
    37    36    31    1
    38    10     1   ar
    39    19    12    1
    40    28    21    1
    41    10     4   ar
    42    28     7    1
    43    15    29    1
    44    18    30    1
@<TRIPOS>MOLECULE
*****
 39 44 0 0 0
SMALL
GASTEIGER

@<TRIPOS>ATOM
      1 C         141.3461  140.4463  159.9998 C.ar    1  UNL1        0.1801
      2 N         140.2755  139.6336  159.3338 N.ar    1  UNL1       -0.0614
      3 O         139.3741  139.0900  160.4024 O.2     1  UNL1       -0.3498
      4 C         139.8875  139.5666  161.7287 C.ar    1  UNL1        0.2065
      5 C         139.4026  139.3457  163.1309 C.ar    1  UNL1        0.1899
      6 F         138.1839  138.5074  163.3797 F       1  UNL1       -0.1996
      7 C         140.1366  139.9630  164.2843 C.ar    1  UNL1        0.0749
      8 C         141.3553  140.8013  164.0355 C.ar    1  UNL1       -0.0053
      9 C         141.8402  141.0222  162.6333 C.ar    1  UNL1        0.0032
     10 C         141.1062  140.4049  161.4799 C.ar    1  UNL1        0.0744
     11 C         142.0893  141.4186  165.1888 C.3     1  UNL1        0.0468
     12 C         141.6044  141.1976  166.5910 C.3     1  UNL1        0.1606
     13 C         142.8232  142.0359  166.3422 C.2     1  UNL1        0.2387
     14 O         143.3081  142.2568  164.9400 O.2     1  UNL1       -0.2741
     15 N         143.5572  142.6532  167.4956 N.am    1  UNL1       -0.2389
     16 C         143.0723  142.4322  168.8977 C.2     1  UNL1        0.3122
     17 O         143.8063  143.0495  170.0512 O.2     1  UNL1       -0.2520
     18 N         141.8535  141.5939  169.1466 N.am    1  UNL1       -0.2389
     19 C         141.1196  140.9766  167.9932 C.2     1  UNL1        0.2387
     20 O         140.5096  140.5738  168.3113 O.2     1  UNL1       -0.2741
     21 C         140.3857  140.3593  166.8398 C.3     1  UNL1        0.1166
     22 C         139.9008  140.1384  168.2420 C.3     1  UNL1        0.1341
     23 C         140.6348  140.7557  169.3954 C.3     1  UNL1        0.0338
     24 O         138.6821  139.3001  168.4908 O.3     1  UNL1       -0.3553
     25 C         137.9481  138.6828  167.3374 C.3     1  UNL1        0.1349
     26 C         136.7293  137.8445  167.5862 C.3     1  UNL1        0.0339
     27 C         138.4330  138.9038  165.9353 C.3     1  UNL1        0.1205
     28 N         139.6517  139.7420  165.6865 N.pl3   1  UNL1       -0.3019
     29 H         144.3571  143.2034  167.3323 H       1  UNL1        0.1591
     30 H         141.5353  141.4489  170.0669 H       1  UNL1        0.1591
     31 C         144.4105  141.6449  157.9411 C.3     1  UNL1        0.1060
     32 C         143.4952  140.5547  158.4140 C.3     1  UNL1        0.1143
     33 N         142.4607  141.1728  159.3072 N.am    1  UNL1       -0.2317
     34 C         142.7367  142.6451  159.3863 C.2     1  UNL1        0.2812
     35 O         141.9465  143.6493  160.1718 O.2     1  UNL1       -0.2623
     36 S         143.9417  142.9369  158.5420 S.3     1  UNL1       -0.0534
     37 C         145.5878  141.4733  157.0276 C.3     1  UNL1        0.1552
     38 C         147.8444  142.3436  156.0790 C.3     1  UNL1        0.1741
     39 O         146.6874  142.4936  157.0216 O.3     1  UNL1       -0.3501
@<TRIPOS>BOND
     1    38    39    1
     2    39    37    1
     3    31    37    1
     4    31    32    1
     5    32    33    1
     6    33     1    1
     7     1     2   ar
     8     2     3   ar
     9     3     4   ar
    10     4     5   ar
    11     5     6    1
    12     5     7   ar
    13     7     8   ar
    14     8     9   ar
    15     9    10   ar
    16     8    11    1
    17    11    12    1
    18    12    13    1
    19    13    14    2
    20    13    15   am
    21    15    16   am
    22    16    17    2
    23    16    18   am
    24    18    19   am
    25    19    20    2
    26    21    12    1
    27    21    22    1
    28    22    23    1
    29    22    24    1
    30    24    25    1
    31    25    26    1
    32    25    27    1
    33    27    28    1
    34    33    34   am
    35    34    35    2
    36    34    36    1
    37    36    31    1
    38    10     1   ar
    39    19    12    1
    40    28    21    1
    41    10     4   ar
    42    28     7    1
    43    15    29    1
    44    18    30    1
@<TRIPOS>MOLECULE
*****
 39 44 0 0 0
SMALL
GASTEIGER

@<TRIPOS>ATOM
      1 C         142.3736  143.1582  160.8923 C.ar    1  UNL1        0.1801
      2 N         143.6228  143.9885  160.8924 N.ar    1  UNL1       -0.0614
      3 O         144.1322  144.0592  162.3015 O.2     1  UNL1       -0.3498
      4 C         143.1979  143.2726  163.1723 C.ar    1  UNL1        0.2065
      5 C         143.1963  142.9915  164.6456 C.ar    1  UNL1        0.1899
      6 F         144.2832  143.5484  165.5166 F       1  UNL1       -0.1996
      7 C         142.1079  142.1534  165.2482 C.ar    1  UNL1        0.0749
      8 C         141.0210  141.5966  164.3773 C.ar    1  UNL1       -0.0053
      9 C         141.0225  141.8777  162.9038 C.ar    1  UNL1        0.0032
     10 C         142.1110  142.7157  162.3013 C.ar    1  UNL1        0.0744
     11 C         139.9325  140.7585  164.9797 C.3     1  UNL1        0.0468
     12 C         139.9310  140.4774  166.4531 C.3     1  UNL1        0.1606
     13 C         138.8441  139.9205  165.5822 C.2     1  UNL1        0.2387
     14 O         138.8456  140.2016  164.1088 O.2     1  UNL1       -0.2741
     15 N         137.7557  139.0825  166.1847 N.am    1  UNL1       -0.2389
     16 C         137.7541  138.8013  167.6581 C.2     1  UNL1        0.3122
     17 O         136.6657  137.9633  168.2607 O.2     1  UNL1       -0.2520
     18 N         138.8410  139.3582  168.5290 N.am    1  UNL1       -0.2389
     19 C         139.9295  140.1963  167.9266 C.2     1  UNL1        0.2387
     20 O         140.4090  140.4003  168.5298 O.2     1  UNL1       -0.2741
     21 C         141.0179  141.0343  167.3240 C.3     1  UNL1        0.1166
     22 C         141.0164  140.7532  168.7975 C.3     1  UNL1        0.1341
     23 C         139.9279  139.9151  169.4000 C.3     1  UNL1        0.0338
     24 O         142.1033  141.3101  169.6684 O.3     1  UNL1       -0.3553
     25 C         143.1917  142.1481  169.0659 C.3     1  UNL1        0.1349
     26 C         144.2786  142.7050  169.9368 C.3     1  UNL1        0.0339
     27 C         143.1932  142.4292  167.5925 C.3     1  UNL1        0.1205
     28 N         142.1063  141.8723  166.7216 N.pl3   1  UNL1       -0.3019
     29 H         137.0423  138.7169  165.6131 H       1  UNL1        0.1591
     30 H         138.8400  139.1737  169.4961 H       1  UNL1        0.1591
     31 C         140.3240  141.5890  157.9936 C.3     1  UNL1        0.1060
     32 C         141.1724  141.4507  159.2230 C.3     1  UNL1        0.1143
     33 N         141.5344  142.8282  159.6937 N.am    1  UNL1       -0.2317
     34 C         140.9098  143.8178  158.7553 C.2     1  UNL1        0.2812
     35 O         141.0148  145.3110  158.8507 O.2     1  UNL1       -0.2623
     36 S         140.1617  143.0519  157.7046 S.3     1  UNL1       -0.0534
     37 C         139.7404  140.4622  157.1939 C.3     1  UNL1        0.1552
     38 C         139.8806  137.8734  157.3619 C.3     1  UNL1        0.1741
     39 O         139.3543  139.1816  157.8730 O.3     1  UNL1       -0.3501
@<TRIPOS>BOND
     1    38    39    1
     2    39    37    1
     3    31    37    1
     4    31    32    1
     5    32    33    1
     6    33     1    1
     7     1     2   ar
     8     2     3   ar
     9     3     4   ar
    10     4     5   ar
    11     5     6    1
    12     5     7   ar
    13     7     8   ar
    14     8     9   ar
    15     9    10   ar
    16     8    11    1
    17    11    12    1
    18    12    13    1
    19    13    14    2
    20    13    15   am
    21    15    16   am
    22    16    17    2
    23    16    18   am
    24    18    19   am
    25    19    20    2
    26    21    12    1
    27    21    22    1
    28    22    23    1
    29    22    24    1
    30    24    25    1
    31    25    26    1
    32    25    27    1
    33    27    28    1
    34    33    34   am
    35    34    35    2
    36    34    36    1
    37    36    31    1
    38    10     1   ar
    39    19    12    1
    40    28    21    1
    41    10     4   ar
    42    28     7    1
    43    15    29    1
    44    18    30    1
@<TRIPOS>MOLECULE
*****
 39 44 0 0 0
SMALL
GASTEIGER

@<TRIPOS>ATOM
      1 C         139.6630  139.1305  157.6308 C.ar    1  UNL1        0.1801
      2 N         138.6644  140.0347  156.9711 N.ar    1  UNL1       -0.0614
      3 O         138.1785  141.0154  157.9968 O.2     1  UNL1       -0.3498
      4 C         138.8769  140.7174  159.2905 C.ar    1  UNL1        0.2065
      5 C         138.7959  141.3563  160.6451 C.ar    1  UNL1        0.1899
      6 F         137.8784  142.5212  160.8713 F       1  UNL1       -0.1996
      7 C         139.6324  140.8303  161.7737 C.ar    1  UNL1        0.0749
      8 C         140.5499  139.6653  161.5475 C.ar    1  UNL1       -0.0053
      9 C         140.6309  139.0264  160.1927 C.ar    1  UNL1        0.0032
     10 C         139.7944  139.5525  159.0643 C.ar    1  UNL1        0.0744
     11 C         141.3864  139.1393  162.6760 C.3     1  UNL1        0.0468
     12 C         141.3054  139.7782  164.0307 C.3     1  UNL1        0.1606
     13 C         142.2229  138.6133  163.8045 C.2     1  UNL1        0.2387
     14 O         142.3039  137.9744  162.4498 O.2     1  UNL1       -0.2741
     15 N         143.0594  138.0873  164.9330 N.am    1  UNL1       -0.2389
     16 C         142.9785  138.7262  166.2877 C.2     1  UNL1        0.3122
     17 O         143.8150  138.2001  167.4163 O.2     1  UNL1       -0.2520
     18 N         142.0610  139.8911  166.5139 N.am    1  UNL1       -0.2389
     19 C         141.2245  140.4171  165.3854 C.2     1  UNL1        0.2387
     20 O         140.8075  141.0262  165.6864 O.2     1  UNL1       -0.2741
     21 C         140.3880  140.9431  164.2569 C.3     1  UNL1        0.1166
     22 C         140.3070  141.5821  165.6116 C.3     1  UNL1        0.1341
     23 C         141.1435  141.0560  166.7401 C.3     1  UNL1        0.0338
     24 O         139.3895  142.7470  165.8378 O.3     1  UNL1       -0.3553
     25 C         138.5530  143.2730  164.7093 C.3     1  UNL1        0.1349
     26 C         137.6355  144.4379  164.9355 C.3     1  UNL1        0.0339
     27 C         138.6340  142.6341  163.3546 C.3     1  UNL1        0.1205
     28 N         139.5515  141.4692  163.1284 N.pl3   1  UNL1       -0.3019
     29 H         143.6616  137.3227  164.7846 H       1  UNL1        0.1591
     30 H         142.0079  140.3104  167.4031 H       1  UNL1        0.1591
     31 C         142.1722  136.4914  156.2874 C.3     1  UNL1        0.1060
     32 C         141.8637  137.7034  157.1158 C.3     1  UNL1        0.1143
     33 N         140.4008  138.0025  156.9727 N.am    1  UNL1       -0.2317
     34 C         139.8052  136.9755  156.0558 C.2     1  UNL1        0.2812
     35 O         138.3673  136.8963  155.6362 O.2     1  UNL1       -0.2623
     36 S         140.9000  136.0417  155.6323 S.3     1  UNL1       -0.0534
     37 C         143.5168  135.8432  156.1400 C.3     1  UNL1        0.1552
     38 C         143.7545  133.2598  156.0005 C.3     1  UNL1        0.1741
     39 O         143.7913  134.5262  156.8035 O.3     1  UNL1       -0.3501
@<TRIPOS>BOND
     1    38    39    1
     2    39    37    1
     3    31    37    1
     4    31    32    1
     5    32    33    1
     6    33     1    1
     7     1     2   ar
     8     2     3   ar
     9     3     4   ar
    10     4     5   ar
    11     5     6    1
    12     5     7   ar
    13     7     8   ar
    14     8     9   ar
    15     9    10   ar
    16     8    11    1
    17    11    12    1
    18    12    13    1
    19    13    14    2
    20    13    15   am
    21    15    16   am
    22    16    17    2
    23    16    18   am
    24    18    19   am
    25    19    20    2
    26    21    12    1
    27    21    22    1
    28    22    23    1
    29    22    24    1
    30    24    25    1
    31    25    26    1
    32    25    27    1
    33    27    28    1
    34    33    34   am
    35    34    35    2
    36    34    36    1
    37    36    31    1
    38    10     1   ar
    39    19    12    1
    40    28    21    1
    41    10     4   ar
    42    28     7    1
    43    15    29    1
    44    18    30    1
@<TRIPOS>MOLECULE
*****
 39 44 0 0 0
SMALL
GASTEIGER

@<TRIPOS>ATOM
      1 C         138.8941  141.3906  158.0709 C.ar    1  UNL1        0.1801
      2 N         137.6675  140.5412  157.9168 N.ar    1  UNL1       -0.0614
      3 O         137.3224  139.9767  159.2630 O.2     1  UNL1       -0.3498
      4 C         138.3359  140.4773  160.2491 C.ar    1  UNL1        0.2065
      5 C         138.4997  140.2503  161.7228 C.ar    1  UNL1        0.1899
      6 F         137.5283  139.3765  162.4596 F       1  UNL1       -0.1996
      7 C         139.6349  140.8972  162.4597 C.ar    1  UNL1        0.0749
      8 C         140.6063  141.7710  161.7229 C.ar    1  UNL1       -0.0053
      9 C         140.4424  141.9980  160.2492 C.ar    1  UNL1        0.0032
     10 C         139.3072  141.3511  159.5123 C.ar    1  UNL1        0.0744
     11 C         141.7414  142.4178  162.4597 C.3     1  UNL1        0.0468
     12 C         141.9052  142.1908  163.9333 C.3     1  UNL1        0.1606
     13 C         142.8766  143.0647  163.1965 C.2     1  UNL1        0.2387
     14 O         142.7128  143.2917  161.7229 O.2     1  UNL1       -0.2741
     15 N         144.0118  143.7115  163.9334 N.am    1  UNL1       -0.2389
     16 C         144.1756  143.4845  165.4070 C.2     1  UNL1        0.3122
     17 O         145.3108  144.1314  166.1439 O.2     1  UNL1       -0.2520
     18 N         143.2042  142.6107  166.1438 N.am    1  UNL1       -0.2389
     19 C         142.0691  141.9639  165.4070 C.2     1  UNL1        0.2387
     20 O         141.6646  141.5444  165.9511 O.2     1  UNL1       -0.2741
     21 C         140.9338  141.3170  164.6701 C.3     1  UNL1        0.1166
     22 C         141.0977  141.0900  166.1438 C.3     1  UNL1        0.1341
     23 C         142.2329  141.7369  166.8806 C.3     1  UNL1        0.0338
     24 O         140.1263  140.2162  166.8806 O.3     1  UNL1       -0.3553
     25 C         138.9911  139.5694  166.1437 C.3     1  UNL1        0.1349
     26 C         138.0197  138.6955  166.8805 C.3     1  UNL1        0.0339
     27 C         138.8273  139.7964  164.6701 C.3     1  UNL1        0.1205
     28 N         139.7987  140.6702  163.9333 N.pl3   1  UNL1       -0.3019
     29 H         144.6493  144.2850  163.4498 H       1  UNL1        0.1591
     30 H         143.3117  142.4617  167.1110 H       1  UNL1        0.1591
     31 C         140.3304  143.9459  155.5266 C.3     1  UNL1        0.1060
     32 C         139.4739  143.6194  156.7140 C.3     1  UNL1        0.1143
     33 N         139.5862  142.1467  156.9758 N.am    1  UNL1       -0.2317
     34 C         140.5122  141.5629  155.9502 C.2     1  UNL1        0.2812
     35 O         140.9086  140.1205  155.8397 O.2     1  UNL1       -0.2623
     36 S         140.9721  142.6748  155.0546 S.3     1  UNL1       -0.0534
     37 C         140.5132  145.3046  154.9181 C.3     1  UNL1        0.1552
     38 C         139.1560  147.2597  155.9600 C.3     1  UNL1        0.1741
     39 O         140.4536  146.5282  155.7837 O.3     1  UNL1       -0.3501
@<TRIPOS>BOND
     1    38    39    1
     2    39    37    1
     3    31    37    1
     4    31    32    1
     5    32    33    1
     6    33     1    1
     7     1     2   ar
     8     2     3   ar
     9     3     4   ar
    10     4     5   ar
    11     5     6    1
    12     5     7   ar
    13     7     8   ar
    14     8     9   ar
    15     9    10   ar
    16     8    11    1
    17    11    12    1
    18    12    13    1
    19    13    14    2
    20    13    15   am
    21    15    16   am
    22    16    17    2
    23    16    18   am
    24    18    19   am
    25    19    20    2
    26    21    12    1
    27    21    22    1
    28    22    23    1
    29    22    24    1
    30    24    25    1
    31    25    26    1
    32    25    27    1
    33    27    28    1
    34    33    34   am
    35    34    35    2
    36    34    36    1
    37    36    31    1
    38    10     1   ar
    39    19    12    1
    40    28    21    1
    41    10     4   ar
    42    28     7    1
    43    15    29    1
    44    18    30    1
@<TRIPOS>MOLECULE
*****
 39 44 0 0 0
SMALL
GASTEIGER

@<TRIPOS>ATOM
      1 C         142.1203  142.0544  161.9068 C.ar    1  UNL1        0.1801
      2 N         143.0836  143.1716  162.1789 N.ar    1  UNL1       -0.0614
      3 O         142.8477  144.2456  161.1587 O.2     1  UNL1       -0.3498
      4 C         141.7387  143.7923  160.2562 C.ar    1  UNL1        0.2065
      5 C         141.0801  144.4376  159.0731 C.ar    1  UNL1        0.1899
      6 F         141.5297  145.7919  158.6107 F       1  UNL1       -0.1996
      7 C         139.9719  143.7287  158.3523 C.ar    1  UNL1        0.0749
      8 C         139.5224  142.3744  158.8147 C.ar    1  UNL1       -0.0053
      9 C         140.1810  141.7291  159.9978 C.ar    1  UNL1        0.0032
     10 C         141.2891  142.4380  160.7186 C.ar    1  UNL1        0.0744
     11 C         138.4143  141.6655  158.0940 C.3     1  UNL1        0.0468
     12 C         137.7557  142.3109  156.9109 C.3     1  UNL1        0.1606
     13 C         137.3062  140.9566  157.3733 C.2     1  UNL1        0.2387
     14 O         137.9647  140.3112  158.5564 O.2     1  UNL1       -0.2741
     15 N         136.1980  140.2477  156.6525 N.am    1  UNL1       -0.2389
     16 C         135.5394  140.8930  155.4694 C.2     1  UNL1        0.3122
     17 O         134.4313  140.1841  154.7486 O.2     1  UNL1       -0.2520
     18 N         135.9890  142.2473  155.0070 N.am    1  UNL1       -0.2389
     19 C         137.0971  142.9562  155.7277 C.2     1  UNL1        0.2387
     20 O         137.1977  143.6499  155.3479 O.2     1  UNL1       -0.2741
     21 C         138.2053  143.6652  156.4485 C.3     1  UNL1        0.1166
     22 C         137.5467  144.3105  155.2653 C.3     1  UNL1        0.1341
     23 C         136.4385  143.6016  154.5446 C.3     1  UNL1        0.0338
     24 O         137.9962  145.6648  154.8030 O.3     1  UNL1       -0.3553
     25 C         139.1044  146.3737  155.5237 C.3     1  UNL1        0.1349
     26 C         139.5539  147.7280  155.0614 C.3     1  UNL1        0.0339
     27 C         139.7629  145.7284  156.7068 C.3     1  UNL1        0.1205
     28 N         139.3134  144.3741  157.1692 N.pl3   1  UNL1       -0.3019
     29 H         135.9029  139.3588  156.9559 H       1  UNL1        0.1591
     30 H         135.5567  142.6709  154.2305 H       1  UNL1        0.1591
     31 C         141.1067  138.9484  164.0023 C.3     1  UNL1        0.1060
     32 C         140.7633  140.2463  163.3332 C.3     1  UNL1        0.1143
     33 N         142.0079  140.7777  162.6862 N.am    1  UNL1       -0.2317
     34 C         143.1205  139.8083  162.9555 C.2     1  UNL1        0.2812
     35 O         144.5407  139.9454  162.4928 O.2     1  UNL1       -0.2623
     36 S         142.5635  138.6778  163.7689 S.3     1  UNL1       -0.0534
     37 C         140.1595  138.0747  164.7700 C.3     1  UNL1        0.1552
     38 C         138.1256  138.9735  166.1135 C.3     1  UNL1        0.1741
     39 O         138.7035  138.4282  164.8414 O.3     1  UNL1       -0.3501
@<TRIPOS>BOND
     1    38    39    1
     2    39    37    1
     3    31    37    1
     4    31    32    1
     5    32    33    1
     6    33     1    1
     7     1     2   ar
     8     2     3   ar
     9     3     4   ar
    10     4     5   ar
    11     5     6    1
    12     5     7   ar
    13     7     8   ar
    14     8     9   ar
    15     9    10   ar
    16     8    11    1
    17    11    12    1
    18    12    13    1
    19    13    14    2
    20    13    15   am
    21    15    16   am
    22    16    17    2
    23    16    18   am
    24    18    19   am
    25    19    20    2
    26    21    12    1
    27    21    22    1
    28    22    23    1
    29    22    24    1
    30    24    25    1
    31    25    26    1
    32    25    27    1
    33    27    28    1
    34    33    34   am
    35    34    35    2
    36    34    36    1
    37    36    31    1
    38    10     1   ar
    39    19    12    1
    40    28    21    1
    41    10     4   ar
    42    28     7    1
    43    15    29    1
    44    18    30    1
