@<TRIPOS>MOLECULE
*****
 38 42 0 0 0
SMALL
GASTEIGER

@<TRIPOS>ATOM
      1 N         142.1206  144.9975  159.0268 N.am    1  UNL1       -0.2593
      2 C         141.3945  144.0552  159.9405 C.2     1  UNL1        0.2702
      3 O         140.0427  143.5307  159.5566 O.2     1  UNL1       -0.2681
      4 H         143.0079  145.3417  159.2788 H       1  UNL1        0.1571
      5 C         139.9868  146.4103  156.1086 C.ar    1  UNL1        0.0451
      6 C         141.0770  145.7066  155.3562 C.ar    1  UNL1        0.1044
      7 N         142.0092  145.0916  156.3578 N.ar    1  UNL1       -0.2227
      8 C         141.4949  145.4153  157.7293 C.ar    1  UNL1        0.1656
      9 S         140.2451  146.2303  157.5753 S.2     1  UNL1       -0.0543
     10 C         138.8397  147.1620  155.5011 C.3     1  UNL1        0.1074
     11 C         140.0433  153.4526  153.0050 C.3     1  UNL1        0.0948
     12 C         139.3946  153.0109  154.2833 C.2     1  UNL1        0.2262
     13 O         138.8845  154.0314  155.2571 O.2     1  UNL1       -0.2749
     14 N         139.2559  151.5487  154.5877 N.am    1  UNL1       -0.2767
     15 C         139.7659  150.5281  153.6139 C.3     1  UNL1        0.1107
     16 C         139.6272  149.0659  153.9184 C.3     1  UNL1        0.0942
     17 N         138.9784  148.6242  155.1967 N.3     1  UNL1       -0.2655
     18 C         138.4684  149.6448  156.1705 C.3     1  UNL1        0.0942
     19 C         138.6071  151.1070  155.8660 C.3     1  UNL1        0.1107
     20 C         142.0203  143.6373  161.2381 C.2     1  UNL1        0.1518
     21 N         143.3548  144.1918  161.6401 N.2     1  UNL1       -0.1775
     22 C         141.3116  142.6649  162.1337 C.ar    1  UNL1        0.0237
     23 C         140.3304  143.1623  163.1534 C.ar    1  UNL1        0.0030
     24 C         139.6216  142.1898  164.0491 C.ar    1  UNL1        0.0184
     25 C         139.8942  140.7200  163.9250 C.ar    1  UNL1        0.1056
     26 C         140.8754  140.2226  162.9053 C.ar    1  UNL1        0.0184
     27 C         141.5841  141.1950  162.0096 C.ar    1  UNL1        0.0030
     28 S         139.1855  139.7476  164.8205 S.O2    1  UNL1        0.0070
     29 O         140.3404  139.7866  165.7770 O.2     1  UNL1       -0.1687
     30 O         138.0305  139.7085  163.8641 O.2     1  UNL1       -0.1687
     31 C         138.4768  138.7751  165.7161 C.3     1  UNL1        0.1339
     32 C         138.0545  137.3711  166.0332 C.3     1  UNL1        0.0257
     33 C         137.6714  138.4947  166.9501 C.3     1  UNL1        0.0257
     34 N         143.9806  143.7739  162.9377 N.pl3   1  UNL1       -0.2327
     35 C         143.8552  144.4920  164.2486 C.3     1  UNL1        0.1110
     36 C         144.6387  143.7264  165.2733 C.3     1  UNL1        0.0250
     37 C         145.2484  142.5351  164.5957 C.3     1  UNL1        0.0250
     38 C         144.8416  142.5645  163.1522 C.3     1  UNL1        0.1110
@<TRIPOS>BOND
     1    11    12    1
     2    12    13    2
     3    12    14   am
     4    14    15    1
     5    15    16    1
     6    16    17    1
     7    17    10    1
     8    10     5    1
     9     5     6   ar
    10     6     7   ar
    11     7     8   ar
    12     8     1    1
    13     1     2   am
    14     2     3    2
    15     2    20    1
    16    20    21    2
    17    21    34    1
    18    34    35    1
    19    35    36    1
    20    36    37    1
    21    37    38    1
    22    20    22    1
    23    22    23   ar
    24    23    24   ar
    25    24    25   ar
    26    25    28    1
    27    28    29    2
    28    28    30    2
    29    28    31    1
    30    31    32    1
    31    32    33    1
    32    25    26   ar
    33    26    27   ar
    34     8     9   ar
    35    17    18    1
    36    18    19    1
    37    19    14    1
    38     9     5   ar
    39    38    34    1
    40    27    22   ar
    41    33    31    1
    42     1     4    1
@<TRIPOS>MOLECULE
*****
 38 42 0 0 0
SMALL
GASTEIGER

@<TRIPOS>ATOM
      1 N         140.2674  140.0207  159.5973 N.am    1  UNL1       -0.2593
      2 C         140.1240  139.5999  161.0299 C.2     1  UNL1        0.2702
      3 O         140.2244  138.1497  161.3993 O.2     1  UNL1       -0.2681
      4 H         140.2015  140.9726  159.3549 H       1  UNL1        0.1571
      5 C         141.6242  137.4516  157.0235 C.ar    1  UNL1        0.0451
      6 C         140.1481  137.3618  156.7722 C.ar    1  UNL1        0.1044
      7 N         139.4601  138.3132  157.7058 N.ar    1  UNL1       -0.2227
      8 C         140.5111  138.9911  158.5341 C.ar    1  UNL1        0.1656
      9 S         141.8485  138.4586  158.1125 S.2     1  UNL1       -0.0543
     10 C         142.6890  136.6715  156.3111 C.3     1  UNL1        0.1074
     11 C         143.4610  129.8956  157.1720 C.3     1  UNL1        0.0948
     12 C         142.5167  130.6739  156.3047 C.2     1  UNL1        0.2262
     13 O         141.5293  129.9529  155.4358 O.2     1  UNL1       -0.2749
     14 N         142.5598  132.1733  156.3063 N.am    1  UNL1       -0.2767
     15 C         143.5472  132.8943  157.1752 C.3     1  UNL1        0.1107
     16 C         143.5902  134.3937  157.1769 C.3     1  UNL1        0.0942
     17 N         142.6459  135.1721  156.3095 N.3     1  UNL1       -0.2655
     18 C         141.6585  134.4511  155.4406 C.3     1  UNL1        0.0942
     19 C         141.6154  132.9517  155.4390 C.3     1  UNL1        0.1107
     20 C         139.8803  140.6296  162.0932 C.2     1  UNL1        0.1518
     21 N         139.1383  141.8900  161.7606 N.2     1  UNL1       -0.1775
     22 C         140.3785  140.3987  163.4891 C.ar    1  UNL1        0.0237
     23 C         139.5037  139.7083  164.4931 C.ar    1  UNL1        0.0030
     24 C         140.0021  139.4775  165.8890 C.ar    1  UNL1        0.0184
     25 C         141.3751  139.9370  166.2808 C.ar    1  UNL1        0.1056
     26 C         142.2499  140.6274  165.2768 C.ar    1  UNL1        0.0184
     27 C         141.7517  140.8582  163.8809 C.ar    1  UNL1        0.0030
     28 S         141.8734  139.7062  167.6766 S.O2    1  UNL1        0.0070
     29 O         143.1712  139.1913  167.1283 O.2     1  UNL1       -0.1687
     30 O         140.5756  140.2211  168.2251 O.2     1  UNL1       -0.1687
     31 C         142.3717  139.4754  169.0725 C.3     1  UNL1        0.1339
     32 C         142.9189  140.0122  170.3619 C.3     1  UNL1        0.0257
     33 C         142.6875  138.5389  170.2008 C.3     1  UNL1        0.0257
     34 N         138.8946  142.9196  162.8239 N.pl3   1  UNL1       -0.2327
     35 C         137.7051  142.9810  163.7357 C.3     1  UNL1        0.1110
     36 C         137.8729  144.1679  164.6373 C.3     1  UNL1        0.0250
     37 C         139.1661  144.8402  164.2827 C.3     1  UNL1        0.0250
     38 C         139.7975  144.0687  163.1620 C.3     1  UNL1        0.1110
@<TRIPOS>BOND
     1    11    12    1
     2    12    13    2
     3    12    14   am
     4    14    15    1
     5    15    16    1
     6    16    17    1
     7    17    10    1
     8    10     5    1
     9     5     6   ar
    10     6     7   ar
    11     7     8   ar
    12     8     1    1
    13     1     2   am
    14     2     3    2
    15     2    20    1
    16    20    21    2
    17    21    34    1
    18    34    35    1
    19    35    36    1
    20    36    37    1
    21    37    38    1
    22    20    22    1
    23    22    23   ar
    24    23    24   ar
    25    24    25   ar
    26    25    28    1
    27    28    29    2
    28    28    30    2
    29    28    31    1
    30    31    32    1
    31    32    33    1
    32    25    26   ar
    33    26    27   ar
    34     8     9   ar
    35    17    18    1
    36    18    19    1
    37    19    14    1
    38     9     5   ar
    39    38    34    1
    40    27    22   ar
    41    33    31    1
    42     1     4    1
@<TRIPOS>MOLECULE
*****
 38 42 0 0 0
SMALL
GASTEIGER

@<TRIPOS>ATOM
      1 N         141.2711  140.2230  159.2689 N.am    1  UNL1       -0.2593
      2 C         141.5578  139.8959  160.7044 C.2     1  UNL1        0.2702
      3 O         141.5279  138.4701  161.1691 O.2     1  UNL1       -0.2681
      4 H         141.2907  141.1589  158.9638 H       1  UNL1        0.1571
      5 C         141.1872  137.4101  156.5957 C.ar    1  UNL1        0.0451
      6 C         139.7470  137.4569  157.0125 C.ar    1  UNL1        0.1044
      7 N         139.6031  138.5164  158.0646 N.ar    1  UNL1       -0.2227
      8 C         140.9544  139.1243  158.2981 C.ar    1  UNL1        0.1656
      9 S         141.9334  138.4406  157.3903 S.2     1  UNL1       -0.0543
     10 C         141.7776  136.4937  155.5654 C.3     1  UNL1        0.1074
     11 C         144.6288  130.7603  158.0651 C.3     1  UNL1        0.0948
     12 C         143.4913  130.9541  157.1068 C.2     1  UNL1        0.2262
     13 O         142.7822  129.7629  156.5338 O.2     1  UNL1       -0.2749
     14 N         143.0629  132.3390  156.7214 N.am    1  UNL1       -0.2767
     15 C         143.7720  133.5301  157.2944 C.3     1  UNL1        0.1107
     16 C         143.3435  134.9150  156.9090 C.3     1  UNL1        0.0942
     17 N         142.2060  135.1088  155.9507 N.3     1  UNL1       -0.2655
     18 C         141.4969  133.9176  155.3778 C.3     1  UNL1        0.0942
     19 C         141.9253  132.5327  155.7631 C.3     1  UNL1        0.1107
     20 C         141.8745  140.9947  161.6752 C.2     1  UNL1        0.1518
     21 N         142.0483  142.4016  161.1850 N.2     1  UNL1       -0.1775
     22 C         142.0173  140.6865  163.1362 C.ar    1  UNL1        0.0237
     23 C         140.8097  140.6947  164.0260 C.ar    1  UNL1        0.0030
     24 C         140.9526  140.3865  165.4871 C.ar    1  UNL1        0.0184
     25 C         142.3030  140.0702  166.0584 C.ar    1  UNL1        0.1056
     26 C         143.5106  140.0621  165.1686 C.ar    1  UNL1        0.0184
     27 C         143.3678  140.3702  163.7075 C.ar    1  UNL1        0.0030
     28 S         142.4459  139.7621  167.5193 S.O2    1  UNL1        0.0070
     29 O         143.4761  138.7199  167.1989 O.2     1  UNL1       -0.1687
     30 O         141.4157  140.8042  167.8399 O.2     1  UNL1       -0.1687
     31 C         142.5887  139.4540  168.9804 C.3     1  UNL1        0.1339
     32 C         142.6652  138.4538  170.0957 C.3     1  UNL1        0.0257
     33 C         142.7597  139.9204  170.3957 C.3     1  UNL1        0.0257
     34 N         142.3650  143.5004  162.1558 N.pl3   1  UNL1       -0.2327
     35 C         143.7366  143.9263  162.5886 C.3     1  UNL1        0.1110
     36 C         143.5849  145.0553  163.5645 C.3     1  UNL1        0.0250
     37 C         142.1196  145.3271  163.7349 C.3     1  UNL1        0.0250
     38 C         141.3657  144.3661  162.8642 C.3     1  UNL1        0.1110
@<TRIPOS>BOND
     1    11    12    1
     2    12    13    2
     3    12    14   am
     4    14    15    1
     5    15    16    1
     6    16    17    1
     7    17    10    1
     8    10     5    1
     9     5     6   ar
    10     6     7   ar
    11     7     8   ar
    12     8     1    1
    13     1     2   am
    14     2     3    2
    15     2    20    1
    16    20    21    2
    17    21    34    1
    18    34    35    1
    19    35    36    1
    20    36    37    1
    21    37    38    1
    22    20    22    1
    23    22    23   ar
    24    23    24   ar
    25    24    25   ar
    26    25    28    1
    27    28    29    2
    28    28    30    2
    29    28    31    1
    30    31    32    1
    31    32    33    1
    32    25    26   ar
    33    26    27   ar
    34     8     9   ar
    35    17    18    1
    36    18    19    1
    37    19    14    1
    38     9     5   ar
    39    38    34    1
    40    27    22   ar
    41    33    31    1
    42     1     4    1
@<TRIPOS>MOLECULE
*****
 38 42 0 0 0
SMALL
GASTEIGER

@<TRIPOS>ATOM
      1 N         142.6670  140.2261  158.9596 N.am    1  UNL1       -0.2593
      2 C         143.2309  140.0083  160.3324 C.2     1  UNL1        0.2702
      3 O         143.9109  138.7140  160.6673 O.2     1  UNL1       -0.2681
      4 H         142.2207  141.0756  158.7398 H       1  UNL1        0.1571
      5 C         142.3028  137.2100  156.5439 C.ar    1  UNL1        0.0451
      6 C         143.6209  137.7754  156.1048 C.ar    1  UNL1        0.1044
      7 N         143.9178  138.9742  156.9563 N.ar    1  UNL1       -0.2227
      8 C         142.7831  139.1495  157.9217 C.ar    1  UNL1        0.1656
      9 S         141.7850  138.0592  157.6668 S.2     1  UNL1       -0.0543
     10 C         141.6219  136.0066  155.9622 C.3     1  UNL1        0.1074
     11 C         144.7788  130.3188  158.1834 C.3     1  UNL1        0.0948
     12 C         143.7270  130.5110  157.1314 C.2     1  UNL1        0.2262
     13 O         143.2014  129.3292  156.3717 O.2     1  UNL1       -0.2749
     14 N         143.2007  131.8849  156.8391 N.am    1  UNL1       -0.2767
     15 C         143.7263  133.0667  157.5988 C.3     1  UNL1        0.1107
     16 C         143.2000  134.4406  157.3065 C.3     1  UNL1        0.0942
     17 N         142.1482  134.6327  156.2545 N.3     1  UNL1       -0.2655
     18 C         141.6226  133.4509  155.4948 C.3     1  UNL1        0.0942
     19 C         142.1489  132.0770  155.7871 C.3     1  UNL1        0.1107
     20 C         143.1147  141.0850  161.3704 C.2     1  UNL1        0.1518
     21 N         143.1393  142.5277  160.9606 N.2     1  UNL1       -0.1775
     22 C         142.9740  140.7189  162.8182 C.ar    1  UNL1        0.0237
     23 C         144.1784  140.2938  163.6048 C.ar    1  UNL1        0.0030
     24 C         144.0376  139.9277  165.0527 C.ar    1  UNL1        0.0184
     25 C         142.6925  139.9868  165.7139 C.ar    1  UNL1        0.1056
     26 C         141.4881  140.4119  164.9273 C.ar    1  UNL1        0.0184
     27 C         141.6288  140.7779  163.4794 C.ar    1  UNL1        0.0030
     28 S         142.5517  139.6207  167.1617 S.O2    1  UNL1        0.0070
     29 O         141.4866  140.6647  167.3221 O.2     1  UNL1       -0.1687
     30 O         143.6168  138.5767  167.0013 O.2     1  UNL1       -0.1687
     31 C         142.4109  139.2546  168.6095 C.3     1  UNL1        0.1339
     32 C         142.8540  138.4491  169.7947 C.3     1  UNL1        0.0257
     33 C         141.7240  139.4260  169.9319 C.3     1  UNL1        0.0257
     34 N         143.0232  143.6043  161.9985 N.pl3   1  UNL1       -0.2327
     35 C         141.7679  144.3339  162.3755 C.3     1  UNL1        0.1110
     36 C         142.1109  145.3208  163.4517 C.3     1  UNL1        0.0250
     37 C         143.5781  145.2013  163.7399 C.3     1  UNL1        0.0250
     38 C         144.1419  144.1404  162.8418 C.3     1  UNL1        0.1110
@<TRIPOS>BOND
     1    11    12    1
     2    12    13    2
     3    12    14   am
     4    14    15    1
     5    15    16    1
     6    16    17    1
     7    17    10    1
     8    10     5    1
     9     5     6   ar
    10     6     7   ar
    11     7     8   ar
    12     8     1    1
    13     1     2   am
    14     2     3    2
    15     2    20    1
    16    20    21    2
    17    21    34    1
    18    34    35    1
    19    35    36    1
    20    36    37    1
    21    37    38    1
    22    20    22    1
    23    22    23   ar
    24    23    24   ar
    25    24    25   ar
    26    25    28    1
    27    28    29    2
    28    28    30    2
    29    28    31    1
    30    31    32    1
    31    32    33    1
    32    25    26   ar
    33    26    27   ar
    34     8     9   ar
    35    17    18    1
    36    18    19    1
    37    19    14    1
    38     9     5   ar
    39    38    34    1
    40    27    22   ar
    41    33    31    1
    42     1     4    1
@<TRIPOS>MOLECULE
*****
 38 42 0 0 0
SMALL
GASTEIGER

@<TRIPOS>ATOM
      1 N         141.5761  144.3534  158.9170 N.am    1  UNL1       -0.2593
      2 C         140.9499  144.4653  160.2754 C.2     1  UNL1        0.2702
      3 O         139.6000  145.1007  160.4290 O.2     1  UNL1       -0.2681
      4 H         142.4622  143.9364  158.8162 H       1  UNL1        0.1571
      5 C         139.3869  145.0244  155.7829 C.ar    1  UNL1        0.0451
      6 C         140.0896  146.3412  155.9329 C.ar    1  UNL1        0.1044
      7 N         140.9953  146.2501  157.1252 N.ar    1  UNL1       -0.2227
      8 C         140.8522  144.8770  157.7121 C.ar    1  UNL1        0.1656
      9 S         139.8583  144.1196  156.8825 S.2     1  UNL1       -0.0543
     10 C         138.3882  144.6741  154.7199 C.3     1  UNL1        0.1074
     11 C         136.5156  138.1218  153.8193 C.3     1  UNL1        0.0948
     12 C         135.8918  139.2188  154.6300 C.2     1  UNL1        0.2262
     13 O         134.6438  138.9521  155.4182 O.2     1  UNL1       -0.2749
     14 N         136.5159  140.5826  154.6525 N.am    1  UNL1       -0.2767
     15 C         137.7639  140.8494  153.8643 C.3     1  UNL1        0.1107
     16 C         138.3880  142.2132  153.8867 C.3     1  UNL1        0.0942
     17 N         137.7641  143.3103  154.6974 N.3     1  UNL1       -0.2655
     18 C         136.5161  143.0435  155.4856 C.3     1  UNL1        0.0942
     19 C         135.8920  141.6797  155.4632 C.3     1  UNL1        0.1107
     20 C         141.6739  143.9417  161.4803 C.2     1  UNL1        0.1518
     21 N         143.0551  144.4329  161.7977 N.2     1  UNL1       -0.1775
     22 C         141.0165  142.9268  162.3680 C.ar    1  UNL1        0.0237
     23 C         140.3245  143.3654  163.6245 C.ar    1  UNL1        0.0030
     24 C         139.6671  142.3505  164.5121 C.ar    1  UNL1        0.0184
     25 C         139.7017  140.8970  164.1432 C.ar    1  UNL1        0.1056
     26 C         140.3937  140.4583  162.8867 C.ar    1  UNL1        0.0184
     27 C         141.0511  141.4732  161.9991 C.ar    1  UNL1        0.0030
     28 S         139.0444  139.8821  165.0308 S.O2    1  UNL1        0.0070
     29 O         138.0327  139.6005  163.9597 O.2     1  UNL1       -0.1687
     30 O         140.0561  140.1636  166.1019 O.2     1  UNL1       -0.1687
     31 C         138.3871  138.8671  165.9184 C.3     1  UNL1        0.1339
     32 C         138.0456  137.4399  166.2288 C.3     1  UNL1        0.0257
     33 C         137.5901  138.5365  167.1453 C.3     1  UNL1        0.0257
     34 N         143.7790  143.9093  163.0026 N.pl3   1  UNL1       -0.2327
     35 C         143.7743  144.5248  164.3705 C.3     1  UNL1        0.1110
     36 C         144.6271  143.6741  165.2644 C.3     1  UNL1        0.0250
     37 C         145.1589  142.5329  164.4490 C.3     1  UNL1        0.0250
     38 C         144.6347  142.6783  163.0511 C.3     1  UNL1        0.1110
@<TRIPOS>BOND
     1    11    12    1
     2    12    13    2
     3    12    14   am
     4    14    15    1
     5    15    16    1
     6    16    17    1
     7    17    10    1
     8    10     5    1
     9     5     6   ar
    10     6     7   ar
    11     7     8   ar
    12     8     1    1
    13     1     2   am
    14     2     3    2
    15     2    20    1
    16    20    21    2
    17    21    34    1
    18    34    35    1
    19    35    36    1
    20    36    37    1
    21    37    38    1
    22    20    22    1
    23    22    23   ar
    24    23    24   ar
    25    24    25   ar
    26    25    28    1
    27    28    29    2
    28    28    30    2
    29    28    31    1
    30    31    32    1
    31    32    33    1
    32    25    26   ar
    33    26    27   ar
    34     8     9   ar
    35    17    18    1
    36    18    19    1
    37    19    14    1
    38     9     5   ar
    39    38    34    1
    40    27    22   ar
    41    33    31    1
    42     1     4    1
@<TRIPOS>MOLECULE
*****
 38 42 0 0 0
SMALL
GASTEIGER

@<TRIPOS>ATOM
      1 N         143.9092  141.0397  158.5520 N.am    1  UNL1       -0.2593
      2 C         143.9578  140.3008  159.8565 C.2     1  UNL1        0.2702
      3 O         144.2069  138.8218  159.8719 O.2     1  UNL1       -0.2681
      4 H         143.7457  142.0104  158.5419 H       1  UNL1        0.1571
      5 C         143.7112  138.9131  155.3110 C.ar    1  UNL1        0.0451
      6 C         145.1259  139.4076  155.2472 C.ar    1  UNL1        0.1044
      7 N         145.3723  140.2645  156.4536 N.ar    1  UNL1       -0.2227
      8 C         144.1099  140.2995  157.2629 C.ar    1  UNL1        0.1656
      9 S         143.0833  139.4643  156.5568 S.2     1  UNL1       -0.0543
     10 C         143.0420  138.0236  154.3056 C.3     1  UNL1        0.1074
     11 C         140.8974  131.5153  154.8459 C.3     1  UNL1        0.0948
     12 C         141.8734  132.2993  155.6720 C.2     1  UNL1        0.2262
     13 O         142.5574  131.6523  156.8397 O.2     1  UNL1       -0.2749
     14 N         142.1656  133.7304  155.3304 N.am    1  UNL1       -0.2767
     15 C         141.4817  134.3774  154.1627 C.3     1  UNL1        0.1107
     16 C         141.7738  135.8085  153.8211 C.3     1  UNL1        0.0942
     17 N         142.7498  136.5925  154.6472 N.3     1  UNL1       -0.2655
     18 C         143.4337  135.9456  155.8149 C.3     1  UNL1        0.0942
     19 C         143.1416  134.5145  156.1565 C.3     1  UNL1        0.1107
     20 C         143.7571  141.0411  161.1456 C.2     1  UNL1        0.1518
     21 N         144.5829  142.2559  161.4492 N.2     1  UNL1       -0.1775
     22 C         142.7308  140.5664  162.1311 C.ar    1  UNL1        0.0237
     23 C         143.0961  139.5335  163.1557 C.ar    1  UNL1        0.0030
     24 C         142.0696  139.0589  164.1412 C.ar    1  UNL1        0.0184
     25 C         140.6780  139.6171  164.1022 C.ar    1  UNL1        0.1056
     26 C         140.3126  140.6500  163.0777 C.ar    1  UNL1        0.0184
     27 C         141.3390  141.1247  162.0921 C.ar    1  UNL1        0.0030
     28 S         139.6516  139.1425  165.0877 S.O2    1  UNL1        0.0070
     29 O         138.5646  139.4338  164.0960 O.2     1  UNL1       -0.1687
     30 O         140.7386  138.8512  166.0795 O.2     1  UNL1       -0.1687
     31 C         138.6252  138.6679  166.0732 C.3     1  UNL1        0.1339
     32 C         137.7342  138.9336  167.2503 C.3     1  UNL1        0.0257
     33 C         137.7386  137.5803  166.6032 C.3     1  UNL1        0.0257
     34 N         144.3822  142.9962  162.7383 N.pl3   1  UNL1       -0.2327
     35 C         143.6352  144.2859  162.9074 C.3     1  UNL1        0.1110
     36 C         143.6847  144.6634  164.3583 C.3     1  UNL1        0.0250
     37 C         144.4624  143.6071  165.0859 C.3     1  UNL1        0.0250
     38 C         144.8934  142.5767  164.0847 C.3     1  UNL1        0.1110
@<TRIPOS>BOND
     1    11    12    1
     2    12    13    2
     3    12    14   am
     4    14    15    1
     5    15    16    1
     6    16    17    1
     7    17    10    1
     8    10     5    1
     9     5     6   ar
    10     6     7   ar
    11     7     8   ar
    12     8     1    1
    13     1     2   am
    14     2     3    2
    15     2    20    1
    16    20    21    2
    17    21    34    1
    18    34    35    1
    19    35    36    1
    20    36    37    1
    21    37    38    1
    22    20    22    1
    23    22    23   ar
    24    23    24   ar
    25    24    25   ar
    26    25    28    1
    27    28    29    2
    28    28    30    2
    29    28    31    1
    30    31    32    1
    31    32    33    1
    32    25    26   ar
    33    26    27   ar
    34     8     9   ar
    35    17    18    1
    36    18    19    1
    37    19    14    1
    38     9     5   ar
    39    38    34    1
    40    27    22   ar
    41    33    31    1
    42     1     4    1
@<TRIPOS>MOLECULE
*****
 38 42 0 0 0
SMALL
GASTEIGER

@<TRIPOS>ATOM
      1 N         142.6301  140.0713  158.6996 N.am    1  UNL1       -0.2593
      2 C         143.4309  139.9591  159.9629 C.2     1  UNL1        0.2702
      3 O         144.4538  138.8718  160.1085 O.2     1  UNL1       -0.2681
      4 H         141.9587  140.7850  158.6041 H       1  UNL1        0.1571
      5 C         142.5847  137.2133  156.0738 C.ar    1  UNL1        0.0451
      6 C         143.8034  137.9777  155.6491 C.ar    1  UNL1        0.1044
      7 N         143.9688  139.1415  156.5810 N.ar    1  UNL1       -0.2227
      8 C         142.8522  139.0962  157.5817 C.ar    1  UNL1        0.1656
      9 S         141.9969  137.9046  157.2683 S.2     1  UNL1       -0.0543
     10 C         142.0481  135.9750  155.4191 C.3     1  UNL1        0.1074
     11 C         143.0463  129.3360  156.8945 C.3     1  UNL1        0.0948
     12 C         143.7582  130.5662  157.3737 C.2     1  UNL1        0.2262
     13 O         144.8977  130.4443  158.3415 O.2     1  UNL1       -0.2749
     14 N         143.3307  131.9184  156.8850 N.am    1  UNL1       -0.2767
     15 C         142.1913  132.0404  155.9172 C.3     1  UNL1        0.1107
     16 C         141.7637  133.3926  155.4285 C.3     1  UNL1        0.0942
     17 N         142.4756  134.6228  155.9077 N.3     1  UNL1       -0.2655
     18 C         143.6150  134.5009  156.8756 C.3     1  UNL1        0.0942
     19 C         144.0426  133.1487  157.3642 C.3     1  UNL1        0.1107
     20 C         143.2088  140.9343  161.0808 C.2     1  UNL1        0.1518
     21 N         143.9028  142.2640  161.0652 N.2     1  UNL1       -0.1775
     22 C         142.2926  140.5799  162.2144 C.ar    1  UNL1        0.0237
     23 C         140.8350  140.9257  162.1369 C.ar    1  UNL1        0.0030
     24 C         139.9188  140.5712  163.2706 C.ar    1  UNL1        0.0184
     25 C         140.4602  139.8709  164.4816 C.ar    1  UNL1        0.1056
     26 C         141.9178  139.5251  164.5590 C.ar    1  UNL1        0.0184
     27 C         142.8340  139.8796  163.4255 C.ar    1  UNL1        0.0030
     28 S         139.5441  139.5164  165.6151 S.O2    1  UNL1        0.0070
     29 O         138.5222  139.0220  164.6347 O.2     1  UNL1       -0.1687
     30 O         140.5661  140.0109  166.5956 O.2     1  UNL1       -0.1687
     31 C         138.6281  139.1619  166.7488 C.3     1  UNL1        0.1339
     32 C         138.2146  139.3178  168.1822 C.3     1  UNL1        0.0257
     33 C         137.4549  138.3921  167.2789 C.3     1  UNL1        0.0257
     34 N         143.6807  143.2392  162.1831 N.pl3   1  UNL1       -0.2327
     35 C         144.4356  143.2824  163.4785 C.3     1  UNL1        0.1110
     36 C         143.8861  144.4123  164.2978 C.3     1  UNL1        0.0250
     37 C         142.7915  145.0674  163.5088 C.3     1  UNL1        0.0250
     38 C         142.6646  144.3424  162.2018 C.3     1  UNL1        0.1110
@<TRIPOS>BOND
     1    11    12    1
     2    12    13    2
     3    12    14   am
     4    14    15    1
     5    15    16    1
     6    16    17    1
     7    17    10    1
     8    10     5    1
     9     5     6   ar
    10     6     7   ar
    11     7     8   ar
    12     8     1    1
    13     1     2   am
    14     2     3    2
    15     2    20    1
    16    20    21    2
    17    21    34    1
    18    34    35    1
    19    35    36    1
    20    36    37    1
    21    37    38    1
    22    20    22    1
    23    22    23   ar
    24    23    24   ar
    25    24    25   ar
    26    25    28    1
    27    28    29    2
    28    28    30    2
    29    28    31    1
    30    31    32    1
    31    32    33    1
    32    25    26   ar
    33    26    27   ar
    34     8     9   ar
    35    17    18    1
    36    18    19    1
    37    19    14    1
    38     9     5   ar
    39    38    34    1
    40    27    22   ar
    41    33    31    1
    42     1     4    1
@<TRIPOS>MOLECULE
*****
 38 42 0 0 0
SMALL
GASTEIGER

@<TRIPOS>ATOM
      1 N         142.9826  140.7722  158.2125 N.am    1  UNL1       -0.2593
      2 C         143.4636  140.4766  159.6021 C.2     1  UNL1        0.2702
      3 O         144.3167  139.2700  159.8598 O.2     1  UNL1       -0.2681
      4 H         142.4226  141.5641  158.0434 H       1  UNL1        0.1571
      5 C         143.2326  138.1766  155.3374 C.ar    1  UNL1        0.0451
      6 C         144.6220  138.7421  155.3390 C.ar    1  UNL1        0.1044
      7 N         144.6974  139.7832  156.4163 N.ar    1  UNL1       -0.2227
      8 C         143.3547  139.8612  157.0804 C.ar    1  UNL1        0.1656
      9 S         142.4494  138.8684  156.4136 S.2     1  UNL1       -0.0543
     10 C         142.7170  137.1073  154.4205 C.3     1  UNL1        0.1074
     11 C         143.7464  130.9034  157.1958 C.3     1  UNL1        0.0948
     12 C         142.7410  131.3732  156.1865 C.2     1  UNL1        0.2262
     13 O         141.7417  130.4094  155.6188 O.2     1  UNL1       -0.2749
     14 N         142.7350  132.8067  155.7450 N.am    1  UNL1       -0.2767
     15 C         143.7343  133.7705  156.3127 C.3     1  UNL1        0.1107
     16 C         143.7283  135.2041  155.8712 C.3     1  UNL1        0.0942
     17 N         142.7230  135.6738  154.8620 N.3     1  UNL1       -0.2655
     18 C         141.7236  134.7100  154.2943 C.3     1  UNL1        0.0942
     19 C         141.7296  133.2765  154.7358 C.3     1  UNL1        0.1107
     20 C         143.0915  141.3875  160.7343 C.2     1  UNL1        0.1518
     21 N         143.6159  142.7924  160.7699 N.2     1  UNL1       -0.1775
     22 C         142.1949  140.8937  161.8307 C.ar    1  UNL1        0.0237
     23 C         140.7065  141.0256  161.6992 C.ar    1  UNL1        0.0030
     24 C         139.8100  140.5317  162.7958 C.ar    1  UNL1        0.0184
     25 C         140.4018  139.9058  164.0238 C.ar    1  UNL1        0.1056
     26 C         141.8902  139.7739  164.1553 C.ar    1  UNL1        0.0184
     27 C         142.7868  140.2678  163.0588 C.ar    1  UNL1        0.0030
     28 S         139.5054  139.4120  165.1203 S.O2    1  UNL1        0.0070
     29 O         140.7061  139.1191  165.9702 O.2     1  UNL1       -0.1687
     30 O         138.3045  139.7049  164.2704 O.2     1  UNL1       -0.1687
     31 C         138.6088  138.9181  166.2167 C.3     1  UNL1        0.1339
     32 C         137.6527  137.8927  166.7502 C.3     1  UNL1        0.0257
     33 C         138.0120  139.0879  167.5824 C.3     1  UNL1        0.0257
     34 N         143.2438  143.7034  161.9020 N.pl3   1  UNL1       -0.2327
     35 C         141.9695  144.4855  162.0221 C.3     1  UNL1        0.1110
     36 C         142.0188  145.2576  163.3071 C.3     1  UNL1        0.0250
     37 C         143.3236  144.9528  163.9813 C.3     1  UNL1        0.0250
     38 C         144.0807  143.9922  163.1129 C.3     1  UNL1        0.1110
@<TRIPOS>BOND
     1    11    12    1
     2    12    13    2
     3    12    14   am
     4    14    15    1
     5    15    16    1
     6    16    17    1
     7    17    10    1
     8    10     5    1
     9     5     6   ar
    10     6     7   ar
    11     7     8   ar
    12     8     1    1
    13     1     2   am
    14     2     3    2
    15     2    20    1
    16    20    21    2
    17    21    34    1
    18    34    35    1
    19    35    36    1
    20    36    37    1
    21    37    38    1
    22    20    22    1
    23    22    23   ar
    24    23    24   ar
    25    24    25   ar
    26    25    28    1
    27    28    29    2
    28    28    30    2
    29    28    31    1
    30    31    32    1
    31    32    33    1
    32    25    26   ar
    33    26    27   ar
    34     8     9   ar
    35    17    18    1
    36    18    19    1
    37    19    14    1
    38     9     5   ar
    39    38    34    1
    40    27    22   ar
    41    33    31    1
    42     1     4    1
@<TRIPOS>MOLECULE
*****
 38 42 0 0 0
SMALL
GASTEIGER

@<TRIPOS>ATOM
      1 N         141.2355  139.4466  160.8965 N.am    1  UNL1       -0.2593
      2 C         141.7981  138.8295  162.1426 C.2     1  UNL1        0.2702
      3 O         143.1553  138.1915  162.1167 O.2     1  UNL1       -0.2681
      4 H         140.3447  139.8654  160.9135 H       1  UNL1        0.1571
      5 C         142.8548  138.8045  157.4279 C.ar    1  UNL1        0.0451
      6 C         143.6513  139.9822  157.9062 C.ar    1  UNL1        0.1044
      7 N         143.1417  140.3661  159.2638 N.ar    1  UNL1       -0.2227
      8 C         142.0301  139.4256  159.6246 C.ar    1  UNL1        0.1656
      9 S         141.8528  138.4606  158.4900 S.2     1  UNL1       -0.0543
     10 C         143.0295  138.0953  156.1178 C.3     1  UNL1        0.1074
     11 C         142.7819  131.2300  156.3555 C.3     1  UNL1        0.0948
     12 C         141.8651  132.2238  155.7060 C.2     1  UNL1        0.2262
     13 O         140.6572  131.7497  154.9537 O.2     1  UNL1       -0.2749
     14 N         142.1562  133.6917  155.8090 N.am    1  UNL1       -0.2767
     15 C         143.3641  134.1658  156.5614 C.3     1  UNL1        0.1107
     16 C         143.6552  135.6337  156.6643 C.3     1  UNL1        0.0942
     17 N         142.7384  136.6274  156.0149 N.3     1  UNL1       -0.2655
     18 C         141.5305  136.1533  155.2625 C.3     1  UNL1        0.0942
     19 C         141.2394  134.6855  155.1595 C.3     1  UNL1        0.1107
     20 C         141.0034  138.8505  163.4146 C.2     1  UNL1        0.1518
     21 N         139.6784  138.1507  163.4828 N.2     1  UNL1       -0.1775
     22 C         141.5336  139.5713  164.6185 C.ar    1  UNL1        0.0237
     23 C         142.1767  138.7991  165.7321 C.ar    1  UNL1        0.0030
     24 C         142.7070  139.5200  166.9360 C.ar    1  UNL1        0.0184
     25 C         142.5942  141.0130  167.0262 C.ar    1  UNL1        0.1056
     26 C         141.9511  141.7852  165.9126 C.ar    1  UNL1        0.0184
     27 C         141.4208  141.0644  164.7087 C.ar    1  UNL1        0.0030
     28 S         143.1244  141.7338  168.2300 S.O2    1  UNL1        0.0070
     29 O         143.6524  142.8237  167.3449 O.2     1  UNL1       -0.1687
     30 O         142.5964  140.6439  169.1152 O.2     1  UNL1       -0.1687
     31 C         143.6546  142.4546  169.4338 C.3     1  UNL1        0.1339
     32 C         143.4122  143.2082  170.7080 C.3     1  UNL1        0.0257
     33 C         144.8153  142.9496  170.2449 C.3     1  UNL1        0.0257
     34 N         138.8837  138.1717  164.7548 N.pl3   1  UNL1       -0.2327
     35 C         138.4391  136.9712  165.5366 C.3     1  UNL1        0.1110
     36 C         137.6747  137.4544  166.7333 C.3     1  UNL1        0.0250
     37 C         137.6469  138.9535  166.6912 C.3     1  UNL1        0.0250
     38 C         138.3941  139.3968  165.4685 C.3     1  UNL1        0.1110
@<TRIPOS>BOND
     1    11    12    1
     2    12    13    2
     3    12    14   am
     4    14    15    1
     5    15    16    1
     6    16    17    1
     7    17    10    1
     8    10     5    1
     9     5     6   ar
    10     6     7   ar
    11     7     8   ar
    12     8     1    1
    13     1     2   am
    14     2     3    2
    15     2    20    1
    16    20    21    2
    17    21    34    1
    18    34    35    1
    19    35    36    1
    20    36    37    1
    21    37    38    1
    22    20    22    1
    23    22    23   ar
    24    23    24   ar
    25    24    25   ar
    26    25    28    1
    27    28    29    2
    28    28    30    2
    29    28    31    1
    30    31    32    1
    31    32    33    1
    32    25    26   ar
    33    26    27   ar
    34     8     9   ar
    35    17    18    1
    36    18    19    1
    37    19    14    1
    38     9     5   ar
    39    38    34    1
    40    27    22   ar
    41    33    31    1
    42     1     4    1
