@<TRIPOS>MOLECULE
*****
 32 35 0 0 0
SMALL
GASTEIGER

@<TRIPOS>ATOM
      1 C         141.1440  140.9316  166.7923 C.3     1  UNL1        0.0667
      2 C         139.9581  140.3572  167.5088 C.3     1  UNL1        0.0337
      3 C         139.8104  140.5502  168.9890 C.3     1  UNL1        0.0735
      4 N         140.8488  141.3176  169.7526 N.3     1  UNL1       -0.2714
      5 C         140.7011  141.5105  171.2328 C.3     1  UNL1        0.0896
      6 C         142.0347  141.8919  169.0360 C.3     1  UNL1        0.0735
      7 C         142.1824  141.6989  167.5558 C.3     1  UNL1        0.0337
      8 N         140.4317  140.2858  165.6409 N.3     1  UNL1       -0.2711
      9 C         141.2005  139.4647  164.6486 C.3     1  UNL1        0.0897
     10 C         140.4881  138.8190  163.4973 C.3     1  UNL1        0.0899
     11 N         139.0069  138.9943  163.3383 N.3     1  UNL1       -0.2665
     12 C         138.2381  139.8154  164.3306 C.3     1  UNL1        0.0899
     13 C         138.9504  140.4611  165.4819 C.3     1  UNL1        0.0897
     14 C         138.2945  138.3486  162.1869 C.3     1  UNL1        0.0992
     15 C         138.5115  138.8546  160.7917 C.ar    1  UNL1       -0.0061
     16 C         137.6754  139.9829  160.2646 C.ar    1  UNL1       -0.0029
     17 C         137.8925  140.4890  158.8693 C.ar    1  UNL1       -0.0003
     18 C         138.9456  139.8668  158.0011 C.ar    1  UNL1       -0.0000
     19 C         139.7817  138.7385  158.5282 C.ar    1  UNL1       -0.0003
     20 C         139.5647  138.2324  159.9235 C.ar    1  UNL1       -0.0029
     21 C         142.0826  141.2817  165.6758 C.3     1  UNL1        0.1128
     22 C         143.2673  143.4448  164.8589 C.2     1  UNL1        0.2294
     23 O         144.5855  142.8968  165.3196 O.2     1  UNL1       -0.2745
     24 N         142.0159  142.6372  165.0371 N.am    1  UNL1       -0.2573
     25 C         140.6977  143.1852  164.5764 C.ar    1  UNL1        0.0539
     26 C         140.2185  142.9126  163.1814 C.ar    1  UNL1        0.0149
     27 C         138.9003  143.4606  162.7208 C.ar    1  UNL1        0.0013
     28 C         138.0614  144.2811  163.6552 C.ar    1  UNL1        0.0001
     29 C         138.5407  144.5536  165.0501 C.ar    1  UNL1        0.0013
     30 C         139.8589  144.0057  165.5108 C.ar    1  UNL1        0.0149
     31 C         143.8643  145.0393  162.8964 C.3     1  UNL1        0.0101
     32 C         143.2006  144.8004  164.2202 C.3     1  UNL1        0.0856
@<TRIPOS>BOND
     1    31    32    1
     2    32    22    1
     3    22    23    2
     4    22    24   am
     5    24    21    1
     6    21     1    1
     7     1     8    1
     8     8     9    1
     9     9    10    1
    10    10    11    1
    11    11    14    1
    12    14    15    1
    13    15    16   ar
    14    16    17   ar
    15    17    18   ar
    16    18    19   ar
    17    19    20   ar
    18    11    12    1
    19    12    13    1
    20     1     2    1
    21     2     3    1
    22     3     4    1
    23     4     5    1
    24     4     6    1
    25     6     7    1
    26    24    25    1
    27    25    26   ar
    28    26    27   ar
    29    27    28   ar
    30    28    29   ar
    31    29    30   ar
    32     7     1    1
    33    30    25   ar
    34    13     8    1
    35    20    15   ar
@<TRIPOS>MOLECULE
*****
 32 35 0 0 0
SMALL
GASTEIGER

@<TRIPOS>ATOM
      1 C         141.0299  139.8529  162.2658 C.3     1  UNL1        0.0667
      2 C         139.7681  139.0547  162.1220 C.3     1  UNL1        0.0337
      3 C         139.3470  138.5541  160.7721 C.3     1  UNL1        0.0735
      4 N         140.1878  138.8518  159.5661 N.3     1  UNL1       -0.2714
      5 C         139.7667  138.3513  158.2162 C.3     1  UNL1        0.0896
      6 C         141.4496  139.6500  159.7099 C.3     1  UNL1        0.0735
      7 C         141.8706  140.1506  161.0597 C.3     1  UNL1        0.0337
      8 N         140.5721  139.8296  163.6941 N.3     1  UNL1       -0.2711
      9 C         139.1363  140.1089  164.0262 C.3     1  UNL1        0.0897
     10 C         138.6786  140.0857  165.4545 C.3     1  UNL1        0.0899
     11 N         139.6568  139.7831  166.5506 N.3     1  UNL1       -0.2665
     12 C         141.0927  139.5038  166.2186 C.3     1  UNL1        0.0899
     13 C         141.5503  139.5270  164.7903 C.3     1  UNL1        0.0897
     14 C         139.1991  139.7598  167.9790 C.3     1  UNL1        0.0992
     15 C         139.8911  140.6107  169.0022 C.ar    1  UNL1       -0.0061
     16 C         140.1119  142.0707  168.7383 C.ar    1  UNL1       -0.0029
     17 C         140.8039  142.9216  169.7617 C.ar    1  UNL1       -0.0003
     18 C         141.2751  142.3124  171.0489 C.ar    1  UNL1       -0.0000
     19 C         141.0543  140.8524  171.3128 C.ar    1  UNL1       -0.0003
     20 C         140.3623  140.0016  170.2895 C.ar    1  UNL1       -0.0029
     21 C         142.1327  140.6430  162.9057 C.3     1  UNL1        0.1128
     22 C         143.2986  142.9056  162.3850 C.2     1  UNL1        0.2294
     23 O         144.5281  142.1699  161.9409 O.2     1  UNL1       -0.2745
     24 N         142.1010  142.1422  162.8674 N.am    1  UNL1       -0.2573
     25 C         140.8715  142.8779  163.3115 C.ar    1  UNL1        0.0539
     26 C         139.8192  143.2527  162.3104 C.ar    1  UNL1        0.0149
     27 C         138.5897  143.9884  162.7544 C.ar    1  UNL1        0.0013
     28 C         138.4127  144.3494  164.1996 C.ar    1  UNL1        0.0001
     29 C         139.4650  143.9746  165.2006 C.ar    1  UNL1        0.0013
     30 C         140.6945  143.2389  164.7566 C.ar    1  UNL1        0.0149
     31 C         143.7075  145.1952  163.5430 C.3     1  UNL1        0.0101
     32 C         143.2670  144.4048  162.3467 C.3     1  UNL1        0.0856
@<TRIPOS>BOND
     1    31    32    1
     2    32    22    1
     3    22    23    2
     4    22    24   am
     5    24    21    1
     6    21     1    1
     7     1     8    1
     8     8     9    1
     9     9    10    1
    10    10    11    1
    11    11    14    1
    12    14    15    1
    13    15    16   ar
    14    16    17   ar
    15    17    18   ar
    16    18    19   ar
    17    19    20   ar
    18    11    12    1
    19    12    13    1
    20     1     2    1
    21     2     3    1
    22     3     4    1
    23     4     5    1
    24     4     6    1
    25     6     7    1
    26    24    25    1
    27    25    26   ar
    28    26    27   ar
    29    27    28   ar
    30    28    29   ar
    31    29    30   ar
    32     7     1    1
    33    30    25   ar
    34    13     8    1
    35    20    15   ar
@<TRIPOS>MOLECULE
*****
 32 35 0 0 0
SMALL
GASTEIGER

@<TRIPOS>ATOM
      1 C         140.7666  139.9963  161.9648 C.3     1  UNL1        0.0667
      2 C         141.6373  138.8076  162.2455 C.3     1  UNL1        0.0337
      3 C         142.2465  138.0394  161.1103 C.3     1  UNL1        0.0735
      4 N         141.9849  138.4599  159.6944 N.3     1  UNL1       -0.2714
      5 C         142.5940  137.6916  158.5592 C.3     1  UNL1        0.0896
      6 C         141.1141  139.6485  159.4137 C.3     1  UNL1        0.0735
      7 C         140.5049  140.4167  160.5489 C.3     1  UNL1        0.0337
      8 N         140.7202  139.9876  163.4642 N.3     1  UNL1       -0.2711
      9 C         139.4150  140.1895  164.1753 C.3     1  UNL1        0.0897
     10 C         139.3686  140.1808  165.6745 C.3     1  UNL1        0.0899
     11 N         140.6274  139.9703  166.4626 N.3     1  UNL1       -0.2665
     12 C         141.9326  139.7684  165.7515 C.3     1  UNL1        0.0899
     13 C         141.9790  139.7771  164.2523 C.3     1  UNL1        0.0897
     14 C         140.5810  139.9616  167.9619 C.3     1  UNL1        0.0992
     15 C         141.2656  141.0461  168.7397 C.ar    1  UNL1       -0.0061
     16 C         142.7057  140.8939  169.1310 C.ar    1  UNL1       -0.0029
     17 C         143.3903  141.9785  169.9088 C.ar    1  UNL1       -0.0003
     18 C         142.6348  143.2153  170.2954 C.ar    1  UNL1       -0.0000
     19 C         141.1947  143.3676  169.9042 C.ar    1  UNL1       -0.0003
     20 C         140.5101  142.2831  169.1264 C.ar    1  UNL1       -0.0029
     21 C         139.8796  141.1820  162.2049 C.3     1  UNL1        0.1128
     22 C         139.5814  143.5595  161.2009 C.2     1  UNL1        0.2294
     23 O         138.2384  143.1637  160.6625 O.2     1  UNL1       -0.2745
     24 N         140.4020  142.5686  161.9721 N.am    1  UNL1       -0.2573
     25 C         141.7449  142.9645  162.5104 C.ar    1  UNL1        0.0539
     26 C         142.9606  142.8701  161.6368 C.ar    1  UNL1        0.0149
     27 C         144.3036  143.2659  162.1752 C.ar    1  UNL1        0.0013
     28 C         144.4307  143.7561  163.5871 C.ar    1  UNL1        0.0001
     29 C         143.2150  143.8505  164.4606 C.ar    1  UNL1        0.0013
     30 C         141.8721  143.4547  163.9224 C.ar    1  UNL1        0.0149
     31 C         139.7000  146.0634  161.8839 C.3     1  UNL1        0.0101
     32 C         140.1036  144.9462  160.9680 C.3     1  UNL1        0.0856
@<TRIPOS>BOND
     1    31    32    1
     2    32    22    1
     3    22    23    2
     4    22    24   am
     5    24    21    1
     6    21     1    1
     7     1     8    1
     8     8     9    1
     9     9    10    1
    10    10    11    1
    11    11    14    1
    12    14    15    1
    13    15    16   ar
    14    16    17   ar
    15    17    18   ar
    16    18    19   ar
    17    19    20   ar
    18    11    12    1
    19    12    13    1
    20     1     2    1
    21     2     3    1
    22     3     4    1
    23     4     5    1
    24     4     6    1
    25     6     7    1
    26    24    25    1
    27    25    26   ar
    28    26    27   ar
    29    27    28   ar
    30    28    29   ar
    31    29    30   ar
    32     7     1    1
    33    30    25   ar
    34    13     8    1
    35    20    15   ar
@<TRIPOS>MOLECULE
*****
 32 35 0 0 0
SMALL
GASTEIGER

@<TRIPOS>ATOM
      1 C         139.9559  141.5960  166.7207 C.3     1  UNL1        0.0667
      2 C         140.4408  142.8389  167.4062 C.3     1  UNL1        0.0337
      3 C         140.7415  142.8164  168.8755 C.3     1  UNL1        0.0735
      4 N         140.5572  141.5508  169.6594 N.3     1  UNL1       -0.2714
      5 C         140.8579  141.5282  171.1288 C.3     1  UNL1        0.0896
      6 C         140.0723  140.3079  168.9740 C.3     1  UNL1        0.0735
      7 C         139.7716  140.3305  167.5046 C.3     1  UNL1        0.0337
      8 N         139.9739  142.5443  165.5585 N.3     1  UNL1       -0.2711
      9 C         141.1752  143.4087  165.3144 C.3     1  UNL1        0.0897
     10 C         141.1932  144.3569  164.1523 C.3     1  UNL1        0.0899
     11 N         140.0099  144.4406  163.2343 N.3     1  UNL1       -0.2665
     12 C         138.8086  143.5762  163.4783 C.3     1  UNL1        0.0899
     13 C         138.7906  142.6280  164.6405 C.3     1  UNL1        0.0897
     14 C         140.0279  145.3889  162.0721 C.3     1  UNL1        0.0992
     15 C         140.7102  144.9971  160.7950 C.ar    1  UNL1       -0.0061
     16 C         140.2945  145.6272  159.4987 C.ar    1  UNL1       -0.0029
     17 C         140.9768  145.2354  158.2216 C.ar    1  UNL1       -0.0003
     18 C         142.0748  144.2136  158.2408 C.ar    1  UNL1       -0.0000
     19 C         142.4904  143.5835  159.5370 C.ar    1  UNL1       -0.0003
     20 C         141.8082  143.9753  160.8141 C.ar    1  UNL1       -0.0029
     21 C         139.4772  140.6824  165.6316 C.3     1  UNL1        0.1128
     22 C         139.9930  138.2125  165.0125 C.2     1  UNL1        0.2294
     23 O         138.6550  137.7985  165.5496 O.2     1  UNL1       -0.2745
     24 N         140.4040  139.6545  165.0535 N.am    1  UNL1       -0.2573
     25 C         141.7420  140.0685  164.5164 C.ar    1  UNL1        0.0539
     26 C         141.8555  140.6101  163.1223 C.ar    1  UNL1        0.0149
     27 C         143.1935  141.0242  162.5852 C.ar    1  UNL1        0.0013
     28 C         144.4179  140.8964  163.4423 C.ar    1  UNL1        0.0001
     29 C         144.3043  140.3548  164.8364 C.ar    1  UNL1        0.0013
     30 C         142.9664  139.9407  165.3735 C.ar    1  UNL1        0.0149
     31 C         141.1072  137.0942  162.9490 C.3     1  UNL1        0.0101
     32 C         140.9198  137.1844  164.4345 C.3     1  UNL1        0.0856
@<TRIPOS>BOND
     1    31    32    1
     2    32    22    1
     3    22    23    2
     4    22    24   am
     5    24    21    1
     6    21     1    1
     7     1     8    1
     8     8     9    1
     9     9    10    1
    10    10    11    1
    11    11    14    1
    12    14    15    1
    13    15    16   ar
    14    16    17   ar
    15    17    18   ar
    16    18    19   ar
    17    19    20   ar
    18    11    12    1
    19    12    13    1
    20     1     2    1
    21     2     3    1
    22     3     4    1
    23     4     5    1
    24     4     6    1
    25     6     7    1
    26    24    25    1
    27    25    26   ar
    28    26    27   ar
    29    27    28   ar
    30    28    29   ar
    31    29    30   ar
    32     7     1    1
    33    30    25   ar
    34    13     8    1
    35    20    15   ar
@<TRIPOS>MOLECULE
*****
 32 35 0 0 0
SMALL
GASTEIGER

@<TRIPOS>ATOM
      1 C         142.5431  140.2729  161.9001 C.3     1  UNL1        0.0667
      2 C         142.4898  138.7800  162.0349 C.3     1  UNL1        0.0337
      3 C         142.5096  137.9151  160.8095 C.3     1  UNL1        0.0735
      4 N         142.5828  138.5433  159.4493 N.3     1  UNL1       -0.2714
      5 C         142.6027  137.6784  158.2239 C.3     1  UNL1        0.0896
      6 C         142.6362  140.0362  159.3145 C.3     1  UNL1        0.0735
      7 C         142.6163  140.9011  160.5399 C.3     1  UNL1        0.0337
      8 N         142.4809  140.1483  163.3937 N.3     1  UNL1       -0.2711
      9 C         141.4627  139.2490  164.0295 C.3     1  UNL1        0.0897
     10 C         141.4005  139.1244  165.5230 C.3     1  UNL1        0.0899
     11 N         142.3566  139.8991  166.3807 N.3     1  UNL1       -0.2665
     12 C         143.3749  140.7985  165.7449 C.3     1  UNL1        0.0899
     13 C         143.4370  140.9230  164.2514 C.3     1  UNL1        0.0897
     14 C         142.2945  139.7745  167.8743 C.3     1  UNL1        0.0992
     15 C         141.4923  140.7561  168.6760 C.ar    1  UNL1       -0.0061
     16 C         142.0138  142.1444  168.9013 C.ar    1  UNL1       -0.0029
     17 C         141.2115  143.1260  169.7031 C.ar    1  UNL1       -0.0003
     18 C         139.8878  142.7194  170.2796 C.ar    1  UNL1       -0.0000
     19 C         139.3663  141.3311  170.0544 C.ar    1  UNL1       -0.0003
     20 C         140.1685  140.3495  169.2526 C.ar    1  UNL1       -0.0029
     21 C         142.5749  141.7226  162.2841 C.3     1  UNL1        0.1128
     22 C         141.5468  143.9114  161.3342 C.2     1  UNL1        0.2294
     23 O         142.9089  144.3605  160.8948 O.2     1  UNL1       -0.2745
     24 N         141.3798  142.5925  162.0288 N.am    1  UNL1       -0.2573
     25 C         140.0177  142.1434  162.4681 C.ar    1  UNL1        0.0539
     26 C         139.1229  141.4148  161.5097 C.ar    1  UNL1        0.0149
     27 C         137.7608  140.9657  161.9490 C.ar    1  UNL1        0.0013
     28 C         137.2935  141.2452  163.3467 C.ar    1  UNL1        0.0001
     29 C         138.1884  141.9737  164.3051 C.ar    1  UNL1        0.0013
     30 C         139.5504  142.4228  163.8658 C.ar    1  UNL1        0.0149
     31 C         140.0101  145.8858  162.0345 C.3     1  UNL1        0.0101
     32 C         140.3518  144.7813  161.0788 C.3     1  UNL1        0.0856
@<TRIPOS>BOND
     1    31    32    1
     2    32    22    1
     3    22    23    2
     4    22    24   am
     5    24    21    1
     6    21     1    1
     7     1     8    1
     8     8     9    1
     9     9    10    1
    10    10    11    1
    11    11    14    1
    12    14    15    1
    13    15    16   ar
    14    16    17   ar
    15    17    18   ar
    16    18    19   ar
    17    19    20   ar
    18    11    12    1
    19    12    13    1
    20     1     2    1
    21     2     3    1
    22     3     4    1
    23     4     5    1
    24     4     6    1
    25     6     7    1
    26    24    25    1
    27    25    26   ar
    28    26    27   ar
    29    27    28   ar
    30    28    29   ar
    31    29    30   ar
    32     7     1    1
    33    30    25   ar
    34    13     8    1
    35    20    15   ar
@<TRIPOS>MOLECULE
*****
 32 35 0 0 0
SMALL
GASTEIGER

@<TRIPOS>ATOM
      1 C         141.4490  140.4192  161.6415 C.3     1  UNL1        0.0667
      2 C         140.7694  139.0982  161.8486 C.3     1  UNL1        0.0337
      3 C         140.2259  138.3418  160.6728 C.3     1  UNL1        0.0735
      4 N         140.3620  138.9066  159.2898 N.3     1  UNL1       -0.2714
      5 C         139.8185  138.1503  158.1140 C.3     1  UNL1        0.0896
      6 C         141.0416  140.2277  159.0827 C.3     1  UNL1        0.0735
      7 C         141.5851  140.9840  160.2585 C.3     1  UNL1        0.0337
      8 N         141.5626  140.2988  163.1323 N.3     1  UNL1       -0.2711
      9 C         142.8929  140.4828  163.8004 C.3     1  UNL1        0.0897
     10 C         143.0064  140.3623  165.2912 C.3     1  UNL1        0.0899
     11 N         141.7897  140.0579  166.1140 N.3     1  UNL1       -0.2665
     12 C         140.4594  139.8739  165.4459 C.3     1  UNL1        0.0899
     13 C         140.3458  139.9943  163.9551 C.3     1  UNL1        0.0897
     14 C         141.9033  139.9374  167.6048 C.3     1  UNL1        0.0992
     15 C         141.8117  141.1625  168.4654 C.ar    1  UNL1       -0.0061
     16 C         142.9719  141.5614  169.3284 C.ar    1  UNL1       -0.0029
     17 C         142.8802  142.7866  170.1890 C.ar    1  UNL1       -0.0003
     18 C         141.6283  143.6129  170.1866 C.ar    1  UNL1       -0.0000
     19 C         140.4681  143.2140  169.3236 C.ar    1  UNL1       -0.0003
     20 C         140.5598  141.9889  168.4630 C.ar    1  UNL1       -0.0029
     21 C         142.1680  141.6985  161.9521 C.3     1  UNL1        0.1128
     22 C         141.8794  144.0609  160.9101 C.2     1  UNL1        0.2294
     23 O         143.0532  143.8077  160.0111 O.2     1  UNL1       -0.2745
     24 N         141.4369  143.0062  161.8806 N.am    1  UNL1       -0.2573
     25 C         140.2631  143.2594  162.7797 C.ar    1  UNL1        0.0539
     26 C         140.4839  143.7319  164.1861 C.ar    1  UNL1        0.0149
     27 C         139.3102  143.9851  165.0852 C.ar    1  UNL1        0.0013
     28 C         137.9157  143.7658  164.5777 C.ar    1  UNL1        0.0001
     29 C         137.6951  143.2933  163.1714 C.ar    1  UNL1        0.0013
     30 C         138.8687  143.0401  162.2723 C.ar    1  UNL1        0.0149
     31 C         140.1976  145.6357  159.7096 C.3     1  UNL1        0.0101
     32 C         141.1484  145.3687  160.8386 C.3     1  UNL1        0.0856
@<TRIPOS>BOND
     1    31    32    1
     2    32    22    1
     3    22    23    2
     4    22    24   am
     5    24    21    1
     6    21     1    1
     7     1     8    1
     8     8     9    1
     9     9    10    1
    10    10    11    1
    11    11    14    1
    12    14    15    1
    13    15    16   ar
    14    16    17   ar
    15    17    18   ar
    16    18    19   ar
    17    19    20   ar
    18    11    12    1
    19    12    13    1
    20     1     2    1
    21     2     3    1
    22     3     4    1
    23     4     5    1
    24     4     6    1
    25     6     7    1
    26    24    25    1
    27    25    26   ar
    28    26    27   ar
    29    27    28   ar
    30    28    29   ar
    31    29    30   ar
    32     7     1    1
    33    30    25   ar
    34    13     8    1
    35    20    15   ar
@<TRIPOS>MOLECULE
*****
 32 35 0 0 0
SMALL
GASTEIGER

@<TRIPOS>ATOM
      1 C         142.8668  140.8294  165.5941 C.3     1  UNL1        0.0667
      2 C         142.9563  139.4413  166.1553 C.3     1  UNL1        0.0337
      3 C         142.9069  139.2276  167.6392 C.3     1  UNL1        0.0735
      4 N         142.7681  140.4022  168.5618 N.3     1  UNL1       -0.2714
      5 C         142.7188  140.1885  170.0457 C.3     1  UNL1        0.0896
      6 C         142.6787  141.7903  168.0006 C.3     1  UNL1        0.0735
      7 C         142.7280  142.0040  166.5167 C.3     1  UNL1        0.0337
      8 N         142.9893  140.0420  164.3232 N.3     1  UNL1       -0.2711
      9 C         143.9013  140.5174  163.2313 C.3     1  UNL1        0.0897
     10 C         144.0238  139.7300  161.9605 C.3     1  UNL1        0.0899
     11 N         143.2343  138.4672  161.7816 N.3     1  UNL1       -0.2665
     12 C         142.3224  137.9918  162.8735 C.3     1  UNL1        0.0899
     13 C         142.1999  138.7792  164.1443 C.3     1  UNL1        0.0897
     14 C         143.3568  137.6798  160.5107 C.3     1  UNL1        0.0992
     15 C         142.3716  137.8911  159.3996 C.ar    1  UNL1       -0.0061
     16 C         142.6636  137.3606  158.0273 C.ar    1  UNL1       -0.0029
     17 C         141.6783  137.5719  156.9161 C.ar    1  UNL1       -0.0003
     18 C         140.4011  138.3138  157.1773 C.ar    1  UNL1       -0.0000
     19 C         140.1091  138.8443  158.5496 C.ar    1  UNL1       -0.0003
     20 C         141.0943  138.6330  159.6607 C.ar    1  UNL1       -0.0029
     21 C         142.8199  141.9441  164.5914 C.3     1  UNL1        0.1128
     22 C         141.3900  144.0606  164.1163 C.2     1  UNL1        0.2294
     23 O         142.5873  144.9271  164.3728 O.2     1  UNL1       -0.2745
     24 N         141.5063  142.5691  164.2257 N.am    1  UNL1       -0.2573
     25 C         140.3090  141.7026  163.9693 C.ar    1  UNL1        0.0539
     26 C         139.3925  141.3365  165.0989 C.ar    1  UNL1        0.0149
     27 C         138.1952  140.4700  164.8425 C.ar    1  UNL1        0.0013
     28 C         137.9145  139.9698  163.4565 C.ar    1  UNL1        0.0001
     29 C         138.8310  140.3359  162.3270 C.ar    1  UNL1        0.0013
     30 C         140.0283  141.2024  162.5833 C.ar    1  UNL1        0.0149
     31 C         139.0342  144.9125  164.8052 C.3     1  UNL1        0.0101
     32 C         140.0764  144.6857  163.7506 C.3     1  UNL1        0.0856
@<TRIPOS>BOND
     1    31    32    1
     2    32    22    1
     3    22    23    2
     4    22    24   am
     5    24    21    1
     6    21     1    1
     7     1     8    1
     8     8     9    1
     9     9    10    1
    10    10    11    1
    11    11    14    1
    12    14    15    1
    13    15    16   ar
    14    16    17   ar
    15    17    18   ar
    16    18    19   ar
    17    19    20   ar
    18    11    12    1
    19    12    13    1
    20     1     2    1
    21     2     3    1
    22     3     4    1
    23     4     5    1
    24     4     6    1
    25     6     7    1
    26    24    25    1
    27    25    26   ar
    28    26    27   ar
    29    27    28   ar
    30    28    29   ar
    31    29    30   ar
    32     7     1    1
    33    30    25   ar
    34    13     8    1
    35    20    15   ar
@<TRIPOS>MOLECULE
*****
 32 35 0 0 0
SMALL
GASTEIGER

@<TRIPOS>ATOM
      1 C         139.9202  140.5738  161.8032 C.3     1  UNL1        0.0667
      2 C         139.5952  139.1095  161.7846 C.3     1  UNL1        0.0337
      3 C         139.5541  138.3669  160.4820 C.3     1  UNL1        0.0735
      4 N         139.8379  139.0885  159.1980 N.3     1  UNL1       -0.2714
      5 C         139.7968  138.3459  157.8954 C.3     1  UNL1        0.0896
      6 C         140.1629  140.5527  159.2165 C.3     1  UNL1        0.0735
      7 C         140.2040  141.2954  160.5191 C.3     1  UNL1        0.0337
      8 N         139.7257  140.3315  163.2707 N.3     1  UNL1       -0.2711
      9 C         139.0347  141.3603  164.1156 C.3     1  UNL1        0.0897
     10 C         138.8403  141.1180  165.5831 C.3     1  UNL1        0.0899
     11 N         139.3369  139.8468  166.2056 N.3     1  UNL1       -0.2665
     12 C         140.0280  138.8180  165.3607 C.3     1  UNL1        0.0899
     13 C         140.2224  139.0604  163.8932 C.3     1  UNL1        0.0897
     14 C         139.1425  139.6045  167.6731 C.3     1  UNL1        0.0992
     15 C         140.1204  140.1664  168.6621 C.ar    1  UNL1       -0.0061
     16 C         141.5840  139.8696  168.5210 C.ar    1  UNL1       -0.0029
     17 C         142.5618  140.4316  169.5101 C.ar    1  UNL1       -0.0003
     18 C         142.0761  141.2902  170.6400 C.ar    1  UNL1       -0.0000
     19 C         140.6126  141.5869  170.7810 C.ar    1  UNL1       -0.0003
     20 C         139.6347  141.0251  169.7921 C.ar    1  UNL1       -0.0029
     21 C         140.1776  141.9539  162.3314 C.3     1  UNL1        0.1128
     22 C         141.9738  143.8253  162.1847 C.2     1  UNL1        0.2294
     23 O         140.9540  144.7584  161.6021 O.2     1  UNL1       -0.2745
     24 N         141.5855  142.4230  162.5493 N.am    1  UNL1       -0.2573
     25 C         142.6054  141.4899  163.1319 C.ar    1  UNL1        0.0539
     26 C         142.7971  141.4217  164.6180 C.ar    1  UNL1        0.0149
     27 C         143.8169  140.4886  165.2006 C.ar    1  UNL1        0.0013
     28 C         144.6449  139.6238  164.2970 C.ar    1  UNL1        0.0001
     29 C         144.4531  139.6921  162.8109 C.ar    1  UNL1        0.0013
     30 C         143.4334  140.6251  162.2283 C.ar    1  UNL1        0.0149
     31 C         143.7367  145.0480  163.6500 C.3     1  UNL1        0.0101
     32 C         143.3817  144.2945  162.4025 C.3     1  UNL1        0.0856
@<TRIPOS>BOND
     1    31    32    1
     2    32    22    1
     3    22    23    2
     4    22    24   am
     5    24    21    1
     6    21     1    1
     7     1     8    1
     8     8     9    1
     9     9    10    1
    10    10    11    1
    11    11    14    1
    12    14    15    1
    13    15    16   ar
    14    16    17   ar
    15    17    18   ar
    16    18    19   ar
    17    19    20   ar
    18    11    12    1
    19    12    13    1
    20     1     2    1
    21     2     3    1
    22     3     4    1
    23     4     5    1
    24     4     6    1
    25     6     7    1
    26    24    25    1
    27    25    26   ar
    28    26    27   ar
    29    27    28   ar
    30    28    29   ar
    31    29    30   ar
    32     7     1    1
    33    30    25   ar
    34    13     8    1
    35    20    15   ar
@<TRIPOS>MOLECULE
*****
 32 35 0 0 0
SMALL
GASTEIGER

@<TRIPOS>ATOM
      1 C         140.1261  139.8899  161.4585 C.3     1  UNL1        0.0667
      2 C         138.6454  140.1279  161.4317 C.3     1  UNL1        0.0337
      3 C         137.9456  140.3541  160.1243 C.3     1  UNL1        0.0735
      4 N         138.7267  140.3422  158.8437 N.3     1  UNL1       -0.2714
      5 C         138.0269  140.5684  157.5364 C.3     1  UNL1        0.0896
      6 C         140.2074  140.1042  158.8705 C.3     1  UNL1        0.0735
      7 C         140.9071  139.8781  160.1779 C.3     1  UNL1        0.0337
      8 N         139.8227  139.8094  162.9253 N.3     1  UNL1       -0.2711
      9 C         138.8149  140.7382  163.5348 C.3     1  UNL1        0.0897
     10 C         138.5116  140.6576  165.0016 C.3     1  UNL1        0.0899
     11 N         139.2161  139.6483  165.8589 N.3     1  UNL1       -0.2665
     12 C         140.2240  138.7196  165.2493 C.3     1  UNL1        0.0899
     13 C         140.5273  138.8001  163.7826 C.3     1  UNL1        0.0897
     14 C         138.9128  139.5678  167.3257 C.3     1  UNL1        0.0992
     15 C         139.5883  140.5036  168.2838 C.ar    1  UNL1       -0.0061
     16 C         140.4666  141.6032  167.7646 C.ar    1  UNL1       -0.0029
     17 C         141.1421  142.5391  168.7228 C.ar    1  UNL1       -0.0003
     18 C         140.9393  142.3753  170.1999 C.ar    1  UNL1       -0.0000
     19 C         140.0609  141.2758  170.7190 C.ar    1  UNL1       -0.0003
     20 C         139.3855  140.3399  169.7610 C.ar    1  UNL1       -0.0029
     21 C         141.5015  139.6240  161.9947 C.3     1  UNL1        0.1128
     22 C         143.9049  140.5792  161.7478 C.2     1  UNL1        0.2294
     23 O         144.3644  139.2736  161.1695 O.2     1  UNL1       -0.2745
     24 N         142.4734  140.7543  162.1604 N.am    1  UNL1       -0.2573
     25 C         142.0140  142.0599  162.7387 C.ar    1  UNL1        0.0539
     26 C         142.0451  142.2751  164.2228 C.ar    1  UNL1        0.0149
     27 C         141.5856  143.5807  164.8011 C.ar    1  UNL1        0.0013
     28 C         141.0950  144.6710  163.8952 C.ar    1  UNL1        0.0001
     29 C         141.0639  144.4557  162.4111 C.ar    1  UNL1        0.0013
     30 C         141.5234  143.1502  161.8328 C.ar    1  UNL1        0.0149
     31 C         145.6720  141.8357  163.1790 C.3     1  UNL1        0.0101
     32 C         144.8769  141.7096  161.9134 C.3     1  UNL1        0.0856
@<TRIPOS>BOND
     1    31    32    1
     2    32    22    1
     3    22    23    2
     4    22    24   am
     5    24    21    1
     6    21     1    1
     7     1     8    1
     8     8     9    1
     9     9    10    1
    10    10    11    1
    11    11    14    1
    12    14    15    1
    13    15    16   ar
    14    16    17   ar
    15    17    18   ar
    16    18    19   ar
    17    19    20   ar
    18    11    12    1
    19    12    13    1
    20     1     2    1
    21     2     3    1
    22     3     4    1
    23     4     5    1
    24     4     6    1
    25     6     7    1
    26    24    25    1
    27    25    26   ar
    28    26    27   ar
    29    27    28   ar
    30    28    29   ar
    31    29    30   ar
    32     7     1    1
    33    30    25   ar
    34    13     8    1
    35    20    15   ar
