@<TRIPOS>MOLECULE
*****
 28 31 0 0 0
SMALL
GASTEIGER

@<TRIPOS>ATOM
      1 N         137.7423  142.0759  163.2413 N.pl3   1  UNL1       -0.2150
      2 H         136.7778  141.9030  163.1462 H       1  UNL1        0.1737
      3 C         138.4684  141.6193  164.4718 C.ar    1  UNL1        0.0648
      4 C         139.5035  142.5025  165.1031 C.ar    1  UNL1        0.0155
      5 C         140.2296  142.0458  166.3337 C.ar    1  UNL1       -0.0029
      6 C         139.9206  140.7059  166.9329 C.ar    1  UNL1       -0.0214
      7 C         138.8855  139.8227  166.3017 C.ar    1  UNL1       -0.0029
      8 C         138.1594  140.2793  165.0712 C.ar    1  UNL1        0.0155
      9 C         140.6467  140.2492  168.1635 C.3     1  UNL1        0.0347
     10 C         141.9825  140.0784  167.5029 C.3     1  UNL1        0.0726
     11 N         142.9562  139.6060  168.5417 N.3     1  UNL1       -0.2972
     12 C         142.2220  139.4847  169.8441 C.3     1  UNL1        0.0689
     13 C         140.7947  139.8823  169.6103 C.3     1  UNL1        0.0211
     14 C         139.4626  140.3245  169.0812 C.3     1  UNL1        0.0072
     15 H         143.7170  140.2790  168.6345 H       1  UNL1        0.1233
     16 S         138.4858  142.7961  162.1557 S.O2    1  UNL1        0.0736
     17 O         137.7254  144.0510  162.4674 O.2     1  UNL1       -0.1499
     18 O         139.2461  141.5412  161.8439 O.2     1  UNL1       -0.1499
     19 C         140.7161  144.9566  158.8987 C.ar    1  UNL1       -0.0221
     20 C         140.7131  145.5032  160.2955 C.ar    1  UNL1       -0.0029
     21 C         139.9697  144.7831  161.3812 C.ar    1  UNL1        0.0199
     22 C         139.2292  143.5163  161.0700 C.ar    1  UNL1        0.1251
     23 C         139.2321  142.9697  159.6732 C.ar    1  UNL1        0.0199
     24 C         139.9756  143.6899  158.5875 C.ar    1  UNL1       -0.0029
     25 C         141.4595  145.6768  157.8130 C.3     1  UNL1        0.0264
     26 C         140.7912  145.9454  156.4973 C.3     1  UNL1        0.0047
     27 C         138.4763  146.2965  155.3711 C.3     1  UNL1        0.0000
     28 C         139.4544  146.6249  156.4600 C.3     1  UNL1        0.0003
@<TRIPOS>BOND
     1    27    28    1
     2    28    26    1
     3    26    25    1
     4    25    19    1
     5    19    20   ar
     6    20    21   ar
     7    21    22   ar
     8    22    16    1
     9    16    17    2
    10    16    18    2
    11    16     1    1
    12     1     3    1
    13     3     4   ar
    14     4     5   ar
    15     5     6   ar
    16     9     6    1
    17     9    10    1
    18    10    11    1
    19    11    12    1
    20    13    12    1
    21    13    14    1
    22     6     7   ar
    23     7     8   ar
    24    22    23   ar
    25    23    24   ar
    26    24    19   ar
    27     8     3   ar
    28    13     9    1
    29    14     9    1
    30     1     2    1
    31    11    15    1
@<TRIPOS>MOLECULE
*****
 28 31 0 0 0
SMALL
GASTEIGER

@<TRIPOS>ATOM
      1 N         138.9436  137.5423  164.2853 N.pl3   1  UNL1       -0.2150
      2 H         138.3276  136.7835  164.4036 H       1  UNL1        0.1737
      3 C         139.2858  138.4196  165.4529 C.ar    1  UNL1        0.0648
      4 C         140.6314  139.0782  165.5272 C.ar    1  UNL1        0.0155
      5 C         140.9736  139.9555  166.6949 C.ar    1  UNL1       -0.0029
      6 C         139.9701  140.1742  167.7880 C.ar    1  UNL1       -0.0214
      7 C         138.6244  139.5157  167.7137 C.ar    1  UNL1       -0.0029
      8 C         138.2823  138.6384  166.5461 C.ar    1  UNL1        0.0155
      9 C         140.3122  141.0516  168.9557 C.3     1  UNL1        0.0347
     10 C         140.1947  139.9788  169.9975 C.3     1  UNL1        0.0726
     11 N         140.4973  140.5935  171.3319 N.3     1  UNL1       -0.2972
     12 C         140.8018  142.0461  171.1147 C.3     1  UNL1        0.0689
     13 C         140.6874  142.3292  169.6462 C.3     1  UNL1        0.0211
     14 C         140.5012  142.3077  168.1579 C.3     1  UNL1        0.0072
     15 H         141.3031  140.1300  171.7518 H       1  UNL1        0.1233
     16 S         139.5401  137.8211  162.9375 S.O2    1  UNL1        0.0736
     17 O         138.4397  138.8000  162.6530 O.2     1  UNL1       -0.1499
     18 O         140.6404  136.8421  163.2220 O.2     1  UNL1       -0.1499
     19 C         141.3294  138.6573  158.8941 C.ar    1  UNL1       -0.0221
     20 C         142.2170  138.2856  160.0447 C.ar    1  UNL1       -0.0029
     21 C         141.6205  138.0068  161.3925 C.ar    1  UNL1        0.0199
     22 C         140.1365  138.0998  161.5897 C.ar    1  UNL1        0.1251
     23 C         139.2489  138.4715  160.4391 C.ar    1  UNL1        0.0199
     24 C         139.8453  138.7503  159.0913 C.ar    1  UNL1       -0.0029
     25 C         141.9258  138.9361  157.5463 C.3     1  UNL1        0.0264
     26 C         143.0080  138.0484  157.0069 C.3     1  UNL1        0.0047
     27 C         143.7312  135.7562  156.0206 C.3     1  UNL1        0.0000
     28 C         142.7337  136.5938  156.7647 C.3     1  UNL1        0.0003
@<TRIPOS>BOND
     1    27    28    1
     2    28    26    1
     3    26    25    1
     4    25    19    1
     5    19    20   ar
     6    20    21   ar
     7    21    22   ar
     8    22    16    1
     9    16    17    2
    10    16    18    2
    11    16     1    1
    12     1     3    1
    13     3     4   ar
    14     4     5   ar
    15     5     6   ar
    16     9     6    1
    17     9    10    1
    18    10    11    1
    19    11    12    1
    20    13    12    1
    21    13    14    1
    22     6     7   ar
    23     7     8   ar
    24    22    23   ar
    25    23    24   ar
    26    24    19   ar
    27     8     3   ar
    28    13     9    1
    29    14     9    1
    30     1     2    1
    31    11    15    1
@<TRIPOS>MOLECULE
*****
 28 31 0 0 0
SMALL
GASTEIGER

@<TRIPOS>ATOM
      1 N         137.4840  141.6312  163.6541 N.pl3   1  UNL1       -0.2150
      2 H         136.5208  141.4298  163.6214 H       1  UNL1        0.1737
      3 C         138.2950  141.2249  164.8487 C.ar    1  UNL1        0.0648
      4 C         139.2981  142.1751  165.4326 C.ar    1  UNL1        0.0155
      5 C         140.1091  141.7687  166.6273 C.ar    1  UNL1       -0.0029
      6 C         139.9170  140.4122  167.2380 C.ar    1  UNL1       -0.0214
      7 C         138.9139  139.4620  166.6541 C.ar    1  UNL1       -0.0029
      8 C         138.1029  139.8684  165.4595 C.ar    1  UNL1        0.0155
      9 C         140.7280  140.0058  168.4327 C.3     1  UNL1        0.0347
     10 C         141.9546  139.6139  167.6634 C.3     1  UNL1        0.0726
     11 N         142.9866  139.1434  168.6451 N.3     1  UNL1       -0.2972
     12 C         142.3978  139.2445  170.0209 C.3     1  UNL1        0.0689
     13 C         141.0019  139.7775  169.8896 C.3     1  UNL1        0.0211
     14 C         139.6709  140.3128  169.4516 C.3     1  UNL1        0.0072
     15 H         143.8186  139.7301  168.5806 H       1  UNL1        0.1233
     16 S         138.1404  142.3443  162.5093 S.O2    1  UNL1        0.0736
     17 O         138.7789  141.0586  162.0745 O.2     1  UNL1       -0.1499
     18 O         137.5019  143.6301  162.9441 O.2     1  UNL1       -0.1499
     19 C         140.1096  144.4837  159.0749 C.ar    1  UNL1       -0.0221
     20 C         140.2876  144.9906  160.4754 C.ar    1  UNL1       -0.0029
     21 C         139.6312  144.2774  161.6202 C.ar    1  UNL1        0.0199
     22 C         138.7968  143.0575  161.3645 C.ar    1  UNL1        0.1251
     23 C         138.6189  142.5506  159.9640 C.ar    1  UNL1        0.0199
     24 C         139.2753  143.2637  158.8192 C.ar    1  UNL1       -0.0029
     25 C         140.7661  145.1968  157.9301 C.3     1  UNL1        0.0264
     26 C         141.9601  144.5906  157.2544 C.3     1  UNL1        0.0047
     27 C         142.9268  142.3539  158.1562 C.3     1  UNL1        0.0000
     28 C         142.9838  143.8500  158.0628 C.3     1  UNL1        0.0003
@<TRIPOS>BOND
     1    27    28    1
     2    28    26    1
     3    26    25    1
     4    25    19    1
     5    19    20   ar
     6    20    21   ar
     7    21    22   ar
     8    22    16    1
     9    16    17    2
    10    16    18    2
    11    16     1    1
    12     1     3    1
    13     3     4   ar
    14     4     5   ar
    15     5     6   ar
    16     9     6    1
    17     9    10    1
    18    10    11    1
    19    11    12    1
    20    13    12    1
    21    13    14    1
    22     6     7   ar
    23     7     8   ar
    24    22    23   ar
    25    23    24   ar
    26    24    19   ar
    27     8     3   ar
    28    13     9    1
    29    14     9    1
    30     1     2    1
    31    11    15    1
@<TRIPOS>MOLECULE
*****
 28 31 0 0 0
SMALL
GASTEIGER

@<TRIPOS>ATOM
      1 N         137.1694  141.0146  163.8607 N.pl3   1  UNL1       -0.2150
      2 H         136.2131  141.0685  164.0886 H       1  UNL1        0.1737
      3 C         138.1829  140.7541  164.9352 C.ar    1  UNL1        0.0648
      4 C         139.2832  141.7427  165.1841 C.ar    1  UNL1        0.0155
      5 C         140.2968  141.4821  166.2587 C.ar    1  UNL1       -0.0029
      6 C         140.2101  140.2329  167.0845 C.ar    1  UNL1       -0.0214
      7 C         139.1098  139.2442  166.8356 C.ar    1  UNL1       -0.0029
      8 C         138.0963  139.5048  165.7610 C.ar    1  UNL1        0.0155
      9 C         141.2237  139.9722  168.1591 C.3     1  UNL1        0.0347
     10 C         140.2581  140.0401  169.3050 C.3     1  UNL1        0.0726
     11 N         141.0256  139.8051  170.5722 N.3     1  UNL1       -0.2972
     12 C         142.4653  139.5919  170.2095 C.3     1  UNL1        0.0689
     13 C         142.5877  139.6952  168.7181 C.3     1  UNL1        0.0211
     14 C         142.4010  139.8499  167.2378 C.3     1  UNL1        0.0072
     15 H         140.6627  138.9793  171.0486 H       1  UNL1        0.1233
     16 S         137.6127  141.1931  162.4388 S.O2    1  UNL1        0.0736
     17 O         137.3292  142.6629  162.5349 O.2     1  UNL1       -0.1499
     18 O         137.8963  139.7233  162.3428 O.2     1  UNL1       -0.1499
     19 C         138.9427  141.7285  158.1734 C.ar    1  UNL1       -0.0221
     20 C         138.3337  140.4297  158.6117 C.ar    1  UNL1       -0.0029
     21 C         137.8904  140.2512  160.0335 C.ar    1  UNL1        0.0199
     22 C         138.0561  141.3716  161.0170 C.ar    1  UNL1        0.1251
     23 C         138.6651  142.6704  160.5787 C.ar    1  UNL1        0.0199
     24 C         139.1084  142.8488  159.1569 C.ar    1  UNL1       -0.0029
     25 C         139.3861  141.9069  156.7515 C.3     1  UNL1        0.0264
     26 C         138.6881  142.8970  155.8669 C.3     1  UNL1        0.0047
     27 C         136.2596  142.0009  155.6439 C.3     1  UNL1        0.0000
     28 C         137.2087  143.1073  155.9979 C.3     1  UNL1        0.0003
@<TRIPOS>BOND
     1    27    28    1
     2    28    26    1
     3    26    25    1
     4    25    19    1
     5    19    20   ar
     6    20    21   ar
     7    21    22   ar
     8    22    16    1
     9    16    17    2
    10    16    18    2
    11    16     1    1
    12     1     3    1
    13     3     4   ar
    14     4     5   ar
    15     5     6   ar
    16     9     6    1
    17     9    10    1
    18    10    11    1
    19    11    12    1
    20    13    12    1
    21    13    14    1
    22     6     7   ar
    23     7     8   ar
    24    22    23   ar
    25    23    24   ar
    26    24    19   ar
    27     8     3   ar
    28    13     9    1
    29    14     9    1
    30     1     2    1
    31    11    15    1
@<TRIPOS>MOLECULE
*****
 28 31 0 0 0
SMALL
GASTEIGER

@<TRIPOS>ATOM
      1 N         138.9674  137.6688  164.0134 N.pl3   1  UNL1       -0.2150
      2 H         138.3150  136.9376  164.1080 H       1  UNL1        0.1737
      3 C         139.2570  138.5707  165.1764 C.ar    1  UNL1        0.0648
      4 C         138.3182  138.6118  166.3456 C.ar    1  UNL1        0.0155
      5 C         138.6078  139.5137  167.5087 C.ar    1  UNL1       -0.0029
      6 C         139.8362  140.3746  167.5025 C.ar    1  UNL1       -0.0214
      7 C         140.7749  140.3335  166.3333 C.ar    1  UNL1       -0.0029
      8 C         140.4853  139.4316  165.1702 C.ar    1  UNL1        0.0155
      9 C         140.1258  141.2766  168.6655 C.3     1  UNL1        0.0347
     10 C         139.8121  140.2664  169.7291 C.3     1  UNL1        0.0726
     11 N         140.0235  140.9178  171.0637 N.3     1  UNL1       -0.2972
     12 C         140.4678  142.3304  170.8249 C.3     1  UNL1        0.0689
     13 C         140.5310  142.5521  169.3427 C.3     1  UNL1        0.0211
     14 C         140.5000  142.4751  167.8450 C.3     1  UNL1        0.0072
     15 H         140.7400  140.4131  171.5856 H       1  UNL1        0.1233
     16 S         139.6717  137.8810  162.7061 S.O2    1  UNL1        0.0736
     17 O         138.6306  138.8848  162.3081 O.2     1  UNL1       -0.1499
     18 O         140.7128  136.8772  163.1041 O.2     1  UNL1       -0.1499
     19 C         141.7847  138.5177  158.7844 C.ar    1  UNL1       -0.0221
     20 C         142.5684  138.1376  160.0055 C.ar    1  UNL1       -0.0029
     21 C         141.8641  137.9254  161.3128 C.ar    1  UNL1        0.0199
     22 C         140.3760  138.0932  161.3989 C.ar    1  UNL1        0.1251
     23 C         139.5923  138.4733  160.1777 C.ar    1  UNL1        0.0199
     24 C         140.2966  138.6856  158.8705 C.ar    1  UNL1       -0.0029
     25 C         142.4890  138.7299  157.4771 C.3     1  UNL1        0.0264
     26 C         142.4889  140.0863  156.8367 C.3     1  UNL1        0.0047
     27 C         144.2031  141.3056  158.3616 C.3     1  UNL1        0.0000
     28 C         142.8918  141.2918  157.6332 C.3     1  UNL1        0.0003
@<TRIPOS>BOND
     1    27    28    1
     2    28    26    1
     3    26    25    1
     4    25    19    1
     5    19    20   ar
     6    20    21   ar
     7    21    22   ar
     8    22    16    1
     9    16    17    2
    10    16    18    2
    11    16     1    1
    12     1     3    1
    13     3     4   ar
    14     4     5   ar
    15     5     6   ar
    16     9     6    1
    17     9    10    1
    18    10    11    1
    19    11    12    1
    20    13    12    1
    21    13    14    1
    22     6     7   ar
    23     7     8   ar
    24    22    23   ar
    25    23    24   ar
    26    24    19   ar
    27     8     3   ar
    28    13     9    1
    29    14     9    1
    30     1     2    1
    31    11    15    1
@<TRIPOS>MOLECULE
*****
 28 31 0 0 0
SMALL
GASTEIGER

@<TRIPOS>ATOM
      1 N         137.3892  141.4564  163.7191 N.pl3   1  UNL1       -0.2150
      2 H         136.4152  141.4065  163.8529 H       1  UNL1        0.1737
      3 C         138.3196  141.0843  164.8353 C.ar    1  UNL1        0.0648
      4 C         138.1781  139.7565  165.5186 C.ar    1  UNL1        0.0155
      5 C         139.1086  139.3845  166.6348 C.ar    1  UNL1       -0.0029
      6 C         140.1805  140.3402  167.0676 C.ar    1  UNL1       -0.0214
      7 C         140.3221  141.6680  166.3843 C.ar    1  UNL1       -0.0029
      8 C         139.3917  142.0401  165.2682 C.ar    1  UNL1        0.0155
      9 C         141.1110  139.9682  168.1839 C.3     1  UNL1        0.0347
     10 C         140.0648  139.9443  169.2586 C.3     1  UNL1        0.0726
     11 N         140.7360  139.5836  170.5507 N.3     1  UNL1       -0.2972
     12 C         142.1968  139.3845  170.2745 C.3     1  UNL1        0.0689
     13 C         142.4285  139.6222  168.8117 C.3     1  UNL1        0.0211
     14 C         142.3516  139.9143  167.3425 C.3     1  UNL1        0.0072
     15 H         140.3333  138.7228  170.9214 H       1  UNL1        0.1233
     16 S         137.9429  141.9044  162.3990 S.O2    1  UNL1        0.0736
     17 O         137.5745  143.3214  162.7254 O.2     1  UNL1       -0.1499
     18 O         138.3114  140.4875  162.0726 O.2     1  UNL1       -0.1499
     19 C         139.6040  143.2486  158.4387 C.ar    1  UNL1       -0.0221
     20 C         138.7394  142.0251  158.5130 C.ar    1  UNL1       -0.0029
     21 C         138.1857  141.5771  159.8331 C.ar    1  UNL1        0.0199
     22 C         138.4966  142.3525  161.0789 C.ar    1  UNL1        0.1251
     23 C         139.3612  143.5759  161.0046 C.ar    1  UNL1        0.0199
     24 C         139.9149  144.0240  159.6845 C.ar    1  UNL1       -0.0029
     25 C         140.1577  143.6966  157.1186 C.3     1  UNL1        0.0264
     26 C         141.0785  144.8789  157.0539 C.3     1  UNL1        0.0047
     27 C         139.2376  146.3355  155.9404 C.3     1  UNL1        0.0000
     28 C         140.5427  146.2269  156.6720 C.3     1  UNL1        0.0003
@<TRIPOS>BOND
     1    27    28    1
     2    28    26    1
     3    26    25    1
     4    25    19    1
     5    19    20   ar
     6    20    21   ar
     7    21    22   ar
     8    22    16    1
     9    16    17    2
    10    16    18    2
    11    16     1    1
    12     1     3    1
    13     3     4   ar
    14     4     5   ar
    15     5     6   ar
    16     9     6    1
    17     9    10    1
    18    10    11    1
    19    11    12    1
    20    13    12    1
    21    13    14    1
    22     6     7   ar
    23     7     8   ar
    24    22    23   ar
    25    23    24   ar
    26    24    19   ar
    27     8     3   ar
    28    13     9    1
    29    14     9    1
    30     1     2    1
    31    11    15    1
@<TRIPOS>MOLECULE
*****
 28 31 0 0 0
SMALL
GASTEIGER

@<TRIPOS>ATOM
      1 N         138.6657  138.3191  164.2427 N.pl3   1  UNL1       -0.2150
      2 H         138.3766  137.4008  164.4489 H       1  UNL1        0.1737
      3 C         138.7021  138.7922  162.8197 C.ar    1  UNL1        0.0648
      4 C         138.0524  140.0910  162.4443 C.ar    1  UNL1        0.0155
      5 C         138.0888  140.5641  161.0213 C.ar    1  UNL1       -0.0029
      6 C         138.7750  139.7384  159.9738 C.ar    1  UNL1       -0.0214
      7 C         139.4248  138.4396  160.3492 C.ar    1  UNL1       -0.0029
      8 C         139.3883  137.9665  161.7721 C.ar    1  UNL1        0.0155
      9 C         138.8115  140.2115  158.5508 C.3     1  UNL1        0.0347
     10 C         138.1831  141.5479  158.8138 C.3     1  UNL1        0.0726
     11 N         138.0866  142.2797  157.5079 N.3     1  UNL1       -0.2972
     12 C         138.6553  141.3956  156.4380 C.3     1  UNL1        0.0689
     13 C         139.1033  140.1174  157.0825 C.3     1  UNL1        0.0211
     14 C         139.4474  138.9740  157.9904 C.3     1  UNL1        0.0072
     15 H         138.6186  143.1486  157.5579 H       1  UNL1        0.1233
     16 S         139.0697  139.2450  165.3515 S.O2    1  UNL1        0.0736
     17 O         137.6739  139.1985  165.8989 O.2     1  UNL1       -0.1499
     18 O         140.4655  139.2914  164.8041 O.2     1  UNL1       -0.1499
     19 C         140.2818  142.0226  168.6779 C.ar    1  UNL1       -0.0221
     20 C         140.4936  142.4265  167.2490 C.ar    1  UNL1       -0.0029
     21 C         140.0895  141.5006  166.1402 C.ar    1  UNL1        0.0199
     22 C         139.4737  140.1709  166.4603 C.ar    1  UNL1        0.1251
     23 C         139.2620  139.7670  167.8893 C.ar    1  UNL1        0.0199
     24 C         139.6660  140.6929  168.9981 C.ar    1  UNL1       -0.0029
     25 C         140.6859  142.9485  169.7868 C.3     1  UNL1        0.0264
     26 C         142.1381  143.2218  170.0440 C.3     1  UNL1        0.0047
     27 C         143.1786  140.8428  170.1334 C.3     1  UNL1        0.0000
     28 C         143.1779  142.2408  169.5895 C.3     1  UNL1        0.0003
@<TRIPOS>BOND
     1    27    28    1
     2    28    26    1
     3    26    25    1
     4    25    19    1
     5    19    20   ar
     6    20    21   ar
     7    21    22   ar
     8    22    16    1
     9    16    17    2
    10    16    18    2
    11    16     1    1
    12     1     3    1
    13     3     4   ar
    14     4     5   ar
    15     5     6   ar
    16     9     6    1
    17     9    10    1
    18    10    11    1
    19    11    12    1
    20    13    12    1
    21    13    14    1
    22     6     7   ar
    23     7     8   ar
    24    22    23   ar
    25    23    24   ar
    26    24    19   ar
    27     8     3   ar
    28    13     9    1
    29    14     9    1
    30     1     2    1
    31    11    15    1
@<TRIPOS>MOLECULE
*****
 28 31 0 0 0
SMALL
GASTEIGER

@<TRIPOS>ATOM
      1 N         138.8779  137.6414  164.2364 N.pl3   1  UNL1       -0.2150
      2 H         138.6048  136.7052  164.3713 H       1  UNL1        0.1737
      3 C         139.2393  138.4946  165.4159 C.ar    1  UNL1        0.0648
      4 C         138.2669  138.6636  166.5454 C.ar    1  UNL1        0.0155
      5 C         138.6283  139.5169  167.7250 C.ar    1  UNL1       -0.0029
      6 C         139.9622  140.2012  167.7750 C.ar    1  UNL1       -0.0214
      7 C         140.9346  140.0322  166.6455 C.ar    1  UNL1       -0.0029
      8 C         140.5732  139.1790  165.4659 C.ar    1  UNL1        0.0155
      9 C         140.3237  141.0545  168.9545 C.3     1  UNL1        0.0347
     10 C         140.1493  139.9788  169.9854 C.3     1  UNL1        0.0726
     11 N         140.4585  140.5700  171.3289 N.3     1  UNL1       -0.2972
     12 C         140.8240  142.0108  171.1283 C.3     1  UNL1        0.0689
     13 C         140.7406  142.3102  169.6609 C.3     1  UNL1        0.0211
     14 C         140.5736  142.3084  168.1703 C.3     1  UNL1        0.0072
     15 H         141.2393  140.0709  171.7552 H       1  UNL1        0.1233
     16 S         138.9325  138.2145  162.8513 S.O2    1  UNL1        0.0736
     17 O         140.0206  137.2460  162.4934 O.2     1  UNL1       -0.1499
     18 O         137.8445  139.1831  163.2091 O.2     1  UNL1       -0.1499
     19 C         139.0964  139.9339  158.6959 C.ar    1  UNL1       -0.0221
     20 C         140.1371  138.9502  159.1421 C.ar    1  UNL1       -0.0029
     21 C         140.0825  138.3770  160.5272 C.ar    1  UNL1        0.0199
     22 C         138.9871  138.7876  161.4662 C.ar    1  UNL1        0.1251
     23 C         137.9464  139.7714  161.0200 C.ar    1  UNL1        0.0199
     24 C         138.0011  140.3445  159.6348 C.ar    1  UNL1       -0.0029
     25 C         139.1510  140.5070  157.3108 C.3     1  UNL1        0.0264
     26 C         137.8907  140.9639  156.6379 C.3     1  UNL1        0.0047
     27 C         138.7432  143.4175  156.6946 C.3     1  UNL1        0.0000
     28 C         137.6606  142.4251  156.3891 C.3     1  UNL1        0.0003
@<TRIPOS>BOND
     1    27    28    1
     2    28    26    1
     3    26    25    1
     4    25    19    1
     5    19    20   ar
     6    20    21   ar
     7    21    22   ar
     8    22    16    1
     9    16    17    2
    10    16    18    2
    11    16     1    1
    12     1     3    1
    13     3     4   ar
    14     4     5   ar
    15     5     6   ar
    16     9     6    1
    17     9    10    1
    18    10    11    1
    19    11    12    1
    20    13    12    1
    21    13    14    1
    22     6     7   ar
    23     7     8   ar
    24    22    23   ar
    25    23    24   ar
    26    24    19   ar
    27     8     3   ar
    28    13     9    1
    29    14     9    1
    30     1     2    1
    31    11    15    1
@<TRIPOS>MOLECULE
*****
 28 31 0 0 0
SMALL
GASTEIGER

@<TRIPOS>ATOM
      1 N         142.0270  137.5196  164.4987 N.pl3   1  UNL1       -0.2150
      2 H         142.4588  136.6788  164.7741 H       1  UNL1        0.1737
      3 C         141.6548  138.5441  165.5291 C.ar    1  UNL1        0.0648
      4 C         140.2610  139.0972  165.5676 C.ar    1  UNL1        0.0155
      5 C         139.8889  140.1218  166.5981 C.ar    1  UNL1       -0.0029
      6 C         140.9106  140.5932  167.5900 C.ar    1  UNL1       -0.0214
      7 C         142.3044  140.0402  167.5514 C.ar    1  UNL1       -0.0029
      8 C         142.6765  139.0157  166.5211 C.ar    1  UNL1        0.0155
      9 C         140.5385  141.6178  168.6204 C.3     1  UNL1        0.0347
     10 C         140.3388  140.6445  169.7442 C.3     1  UNL1        0.0726
     11 N         139.9412  141.4209  170.9646 N.3     1  UNL1       -0.2972
     12 C         139.8952  142.8739  170.5950 C.3     1  UNL1        0.0689
     13 C         140.2643  142.9956  169.1462 C.3     1  UNL1        0.0211
     14 C         140.6603  142.8052  167.7121 C.3     1  UNL1        0.0072
     15 H         140.6256  141.2740  171.7065 H       1  UNL1        0.1233
     16 S         141.7411  137.7760  163.0487 S.O2    1  UNL1        0.0736
     17 O         142.9134  138.7095  162.9827 O.2     1  UNL1       -0.1499
     18 O         140.5689  136.8424  163.1147 O.2     1  UNL1       -0.1499
     19 C         140.8836  138.5453  158.6986 C.ar    1  UNL1       -0.0221
     20 C         139.7653  138.5631  159.6981 C.ar    1  UNL1       -0.0029
     21 C         140.0511  138.3066  161.1481 C.ar    1  UNL1        0.0199
     22 C         141.4553  138.0324  161.5987 C.ar    1  UNL1        0.1251
     23 C         142.5736  138.0146  160.5992 C.ar    1  UNL1        0.0199
     24 C         142.2878  138.2710  159.1492 C.ar    1  UNL1       -0.0029
     25 C         140.5978  138.8017  157.2486 C.3     1  UNL1        0.0264
     26 C         139.6965  137.8759  156.4867 C.3     1  UNL1        0.0047
     27 C         141.5467  136.0934  156.1001 C.3     1  UNL1        0.0000
     28 C         140.2829  136.7707  155.6593 C.3     1  UNL1        0.0003
@<TRIPOS>BOND
     1    27    28    1
     2    28    26    1
     3    26    25    1
     4    25    19    1
     5    19    20   ar
     6    20    21   ar
     7    21    22   ar
     8    22    16    1
     9    16    17    2
    10    16    18    2
    11    16     1    1
    12     1     3    1
    13     3     4   ar
    14     4     5   ar
    15     5     6   ar
    16     9     6    1
    17     9    10    1
    18    10    11    1
    19    11    12    1
    20    13    12    1
    21    13    14    1
    22     6     7   ar
    23     7     8   ar
    24    22    23   ar
    25    23    24   ar
    26    24    19   ar
    27     8     3   ar
    28    13     9    1
    29    14     9    1
    30     1     2    1
    31    11    15    1
