@<TRIPOS>MOLECULE
*****
 24 26 0 0 0
SMALL
GASTEIGER

@<TRIPOS>ATOM
      1 C         140.4558  141.2715  169.4813 C.ar    1  UNL1        0.1453
      2 C         141.7632  140.5575  169.6576 C.ar    1  UNL1        0.0376
      3 C         142.9909  141.3262  170.0471 C.ar    1  UNL1        0.0063
      4 C         142.9114  142.8089  170.2602 C.ar    1  UNL1        0.0395
      5 C         141.6041  143.5228  170.0839 C.ar    1  UNL1        0.0063
      6 C         140.3762  142.7542  169.6944 C.ar    1  UNL1        0.0376
      7 C         144.1392  143.5775  170.6496 C.ar    1  UNL1        0.2058
      8 N         145.5375  143.3011  170.1823 N.ar    1  UNL1       -0.1077
      9 N         146.4469  144.3103  170.8186 N.ar    1  UNL1       -0.0450
     10 N         145.6105  145.2103  171.6792 N.ar    1  UNL1       -0.1495
     11 N         144.1843  144.7574  171.5747 N.ar    1  UNL1       -0.1297
     12 C         146.1121  146.3611  172.5000 C.3     1  UNL1        0.1681
     13 C         147.1360  146.1284  173.5713 C.3     1  UNL1        0.0938
     14 N         148.4655  145.5291  173.2207 N.3     1  UNL1       -0.3194
     15 H         148.3323  144.5698  172.9006 H       1  UNL1        0.1189
     16 H         149.0677  145.5324  174.0440 H       1  UNL1        0.1189
     17 O         139.2280  140.5028  169.0918 O.3     1  UNL1       -0.4535
     18 C         139.0143  137.6665  163.8089 C.3     1  UNL1        0.0310
     19 C         139.0677  138.3756  165.1296 C.ar    1  UNL1       -0.0217
     20 C         138.0189  138.1074  166.1678 C.ar    1  UNL1       -0.0011
     21 C         138.0723  138.8165  167.4886 C.ar    1  UNL1        0.0372
     22 C         139.1746  139.7937  167.7711 C.ar    1  UNL1        0.1453
     23 C         140.2234  140.0619  166.7329 C.ar    1  UNL1        0.0372
     24 C         140.1700  139.3529  165.4121 C.ar    1  UNL1       -0.0011
@<TRIPOS>BOND
     1    18    19    1
     2    19    20   ar
     3    20    21   ar
     4    21    22   ar
     5    22    17    1
     6    17     1    1
     7     1     2   ar
     8     2     3   ar
     9     3     4   ar
    10     4     7    1
    11     7     8   ar
    12     8     9   ar
    13     9    10   ar
    14    10    12    1
    15    12    13    1
    16    13    14    1
    17    10    11   ar
    18     4     5   ar
    19     5     6   ar
    20    22    23   ar
    21    23    24   ar
    22    24    19   ar
    23     6     1   ar
    24    11     7   ar
    25    14    15    1
    26    14    16    1
@<TRIPOS>MOLECULE
*****
 24 26 0 0 0
SMALL
GASTEIGER

@<TRIPOS>ATOM
      1 C         139.5630  139.9602  167.6551 C.ar    1  UNL1        0.1453
      2 C         140.7487  140.4992  166.9109 C.ar    1  UNL1        0.0376
      3 C         141.7554  141.3538  167.6223 C.ar    1  UNL1        0.0063
      4 C         141.5765  141.6695  169.0777 C.ar    1  UNL1        0.0395
      5 C         140.3909  141.1305  169.8219 C.ar    1  UNL1        0.0063
      6 C         139.3841  140.2758  169.1105 C.ar    1  UNL1        0.0376
      7 C         142.5833  142.5242  169.7891 C.ar    1  UNL1        0.2058
      8 N         142.2758  143.6275  170.7577 N.ar    1  UNL1       -0.1077
      9 N         143.5768  144.2108  171.2239 N.ar    1  UNL1       -0.0450
     10 N         144.6882  143.4680  170.5434 N.ar    1  UNL1       -0.1495
     11 N         144.0742  142.4256  169.6567 N.ar    1  UNL1       -0.1297
     12 C         146.1559  143.7228  170.7189 C.3     1  UNL1        0.1681
     13 C         146.6462  145.1087  171.0169 C.3     1  UNL1        0.0938
     14 N         145.7228  146.1134  171.6396 N.3     1  UNL1       -0.3194
     15 H         144.9713  146.3350  170.9865 H       1  UNL1        0.1189
     16 H         146.2431  146.9625  171.8601 H       1  UNL1        0.1189
     17 O         138.5562  139.1055  166.9437 O.3     1  UNL1       -0.4535
     18 C         138.8327  138.4754  160.9833 C.3     1  UNL1        0.0310
     19 C         138.7636  138.6329  162.4734 C.ar    1  UNL1       -0.0217
     20 C         138.1934  139.8857  163.0695 C.ar    1  UNL1       -0.0011
     21 C         138.1243  140.0432  164.5596 C.ar    1  UNL1        0.0372
     22 C         138.6254  138.9480  165.4536 C.ar    1  UNL1        0.1453
     23 C         139.1956  137.6952  164.8575 C.ar    1  UNL1        0.0372
     24 C         139.2647  137.5377  163.3674 C.ar    1  UNL1       -0.0011
@<TRIPOS>BOND
     1    18    19    1
     2    19    20   ar
     3    20    21   ar
     4    21    22   ar
     5    22    17    1
     6    17     1    1
     7     1     2   ar
     8     2     3   ar
     9     3     4   ar
    10     4     7    1
    11     7     8   ar
    12     8     9   ar
    13     9    10   ar
    14    10    12    1
    15    12    13    1
    16    13    14    1
    17    10    11   ar
    18     4     5   ar
    19     5     6   ar
    20    22    23   ar
    21    23    24   ar
    22    24    19   ar
    23     6     1   ar
    24    11     7   ar
    25    14    15    1
    26    14    16    1
@<TRIPOS>MOLECULE
*****
 24 26 0 0 0
SMALL
GASTEIGER

@<TRIPOS>ATOM
      1 C         140.4885  144.3177  163.4272 C.ar    1  UNL1        0.1453
      2 C         139.7400  145.4534  162.7945 C.ar    1  UNL1        0.0376
      3 C         139.9748  145.7959  161.3532 C.ar    1  UNL1        0.0063
      4 C         140.9581  145.0027  160.5444 C.ar    1  UNL1        0.0395
      5 C         141.7065  143.8671  161.1769 C.ar    1  UNL1        0.0063
      6 C         141.4717  143.5245  162.6184 C.ar    1  UNL1        0.0376
      7 C         141.1928  145.3452  159.1030 C.ar    1  UNL1        0.2058
      8 N         142.4612  145.1123  158.3368 N.ar    1  UNL1       -0.1077
      9 N         142.2528  145.6039  156.9349 N.ar    1  UNL1       -0.0450
     10 N         140.8556  146.1406  156.8349 N.ar    1  UNL1       -0.1495
     11 N         140.2006  145.9807  158.1748 N.ar    1  UNL1       -0.1297
     12 C         140.2244  146.7332  155.6101 C.3     1  UNL1        0.1681
     13 C         138.8947  147.4203  155.7092 C.3     1  UNL1        0.0938
     14 N         138.6654  148.4617  156.7640 N.3     1  UNL1       -0.3194
     15 H         138.7013  148.0259  157.6855 H       1  UNL1        0.1189
     16 H         137.7499  148.8898  156.6258 H       1  UNL1        0.1189
     17 O         140.2537  143.9752  164.8685 O.3     1  UNL1       -0.4535
     18 C         138.0937  138.5789  166.3566 C.3     1  UNL1        0.0310
     19 C         138.6337  139.9280  165.9846 C.ar    1  UNL1       -0.0217
     20 C         139.6972  140.5684  166.8264 C.ar    1  UNL1       -0.0011
     21 C         140.2372  141.9174  166.4544 C.ar    1  UNL1        0.0372
     22 C         139.7137  142.6262  165.2405 C.ar    1  UNL1        0.1453
     23 C         138.6502  141.9858  164.3986 C.ar    1  UNL1        0.0372
     24 C         138.1102  140.6367  164.7707 C.ar    1  UNL1       -0.0011
@<TRIPOS>BOND
     1    18    19    1
     2    19    20   ar
     3    20    21   ar
     4    21    22   ar
     5    22    17    1
     6    17     1    1
     7     1     2   ar
     8     2     3   ar
     9     3     4   ar
    10     4     7    1
    11     7     8   ar
    12     8     9   ar
    13     9    10   ar
    14    10    12    1
    15    12    13    1
    16    13    14    1
    17    10    11   ar
    18     4     5   ar
    19     5     6   ar
    20    22    23   ar
    21    23    24   ar
    22    24    19   ar
    23     6     1   ar
    24    11     7   ar
    25    14    15    1
    26    14    16    1
@<TRIPOS>MOLECULE
*****
 24 26 0 0 0
SMALL
GASTEIGER

@<TRIPOS>ATOM
      1 C         138.5594  139.1314  165.8326 C.ar    1  UNL1        0.1453
      2 C         138.9200  137.9468  164.9859 C.ar    1  UNL1        0.0376
      3 C         138.8757  138.0525  163.4903 C.ar    1  UNL1        0.0063
      4 C         138.4708  139.3428  162.8413 C.ar    1  UNL1        0.0395
      5 C         138.1102  140.5274  163.6879 C.ar    1  UNL1        0.0063
      6 C         138.1545  140.4217  165.1836 C.ar    1  UNL1        0.0376
      7 C         138.4265  139.4485  161.3457 C.ar    1  UNL1        0.2058
      8 N         137.3059  140.0302  160.5358 N.ar    1  UNL1       -0.1077
      9 N         137.6818  139.9323  159.0869 N.ar    1  UNL1       -0.0450
     10 N         139.0347  139.2901  159.0014 N.ar    1  UNL1       -0.1495
     11 N         139.4949  138.9911  160.3974 N.ar    1  UNL1       -0.1297
     12 C         139.7940  138.9982  157.7413 C.3     1  UNL1        0.1681
     13 C         139.9737  137.5805  157.2851 C.3     1  UNL1        0.0938
     14 N         139.0052  136.9774  156.3115 N.3     1  UNL1       -0.3194
     15 H         138.0869  136.9008  156.7486 H       1  UNL1        0.1189
     16 H         139.3304  136.0498  156.0389 H       1  UNL1        0.1189
     17 O         138.6038  139.0256  167.3281 O.3     1  UNL1       -0.4535
     18 C         142.2585  142.5899  170.4807 C.3     1  UNL1        0.0310
     19 C         141.3449  141.6988  169.6926 C.ar    1  UNL1       -0.0217
     20 C         140.0075  141.3131  170.2517 C.ar    1  UNL1       -0.0011
     21 C         139.0938  140.4220  169.4635 C.ar    1  UNL1        0.0372
     22 C         139.5175  139.9167  168.1163 C.ar    1  UNL1        0.1453
     23 C         140.8548  140.3024  167.5572 C.ar    1  UNL1        0.0372
     24 C         141.7685  141.1935  168.3453 C.ar    1  UNL1       -0.0011
@<TRIPOS>BOND
     1    18    19    1
     2    19    20   ar
     3    20    21   ar
     4    21    22   ar
     5    22    17    1
     6    17     1    1
     7     1     2   ar
     8     2     3   ar
     9     3     4   ar
    10     4     7    1
    11     7     8   ar
    12     8     9   ar
    13     9    10   ar
    14    10    12    1
    15    12    13    1
    16    13    14    1
    17    10    11   ar
    18     4     5   ar
    19     5     6   ar
    20    22    23   ar
    21    23    24   ar
    22    24    19   ar
    23     6     1   ar
    24    11     7   ar
    25    14    15    1
    26    14    16    1
@<TRIPOS>MOLECULE
*****
 24 26 0 0 0
SMALL
GASTEIGER

@<TRIPOS>ATOM
      1 C         143.3384  138.7139  165.7679 C.ar    1  UNL1        0.1453
      2 C         144.4944  139.2874  165.0031 C.ar    1  UNL1        0.0376
      3 C         144.4823  139.2732  163.5033 C.ar    1  UNL1        0.0063
      4 C         143.3143  138.6855  162.7682 C.ar    1  UNL1        0.0395
      5 C         142.1584  138.1120  163.5329 C.ar    1  UNL1        0.0063
      6 C         142.1704  138.1262  165.0328 C.ar    1  UNL1        0.0376
      7 C         143.3023  138.6713  161.2682 C.ar    1  UNL1        0.2058
      8 N         144.0800  139.5885  160.3717 N.ar    1  UNL1       -0.1077
      9 N         143.7688  139.2216  158.9508 N.ar    1  UNL1       -0.0450
     10 N         142.7988  138.0775  158.9694 N.ar    1  UNL1       -0.1495
     11 N         142.5105  137.7375  160.4016 N.ar    1  UNL1       -0.1297
     12 C         142.2189  137.3937  157.7670 C.3     1  UNL1        0.1681
     13 C         143.1175  136.9472  156.6519 C.3     1  UNL1        0.0938
     14 N         144.1272  137.8956  156.0769 N.3     1  UNL1       -0.3194
     15 H         143.6450  138.6638  155.6102 H       1  UNL1        0.1189
     16 H         144.7121  137.4018  155.4027 H       1  UNL1        0.1189
     17 O         143.3505  138.7281  167.2678 O.3     1  UNL1       -0.4535
     18 C         140.2224  142.8872  170.2539 C.3     1  UNL1        0.0310
     19 C         141.0044  141.8474  169.5074 C.ar    1  UNL1       -0.0217
     20 C         141.5692  142.1620  168.1539 C.ar    1  UNL1       -0.0011
     21 C         142.3512  141.1222  167.4073 C.ar    1  UNL1        0.0372
     22 C         142.5685  139.7679  168.0143 C.ar    1  UNL1        0.1453
     23 C         142.0037  139.4533  169.3678 C.ar    1  UNL1        0.0372
     24 C         141.2216  140.4931  170.1143 C.ar    1  UNL1       -0.0011
@<TRIPOS>BOND
     1    18    19    1
     2    19    20   ar
     3    20    21   ar
     4    21    22   ar
     5    22    17    1
     6    17     1    1
     7     1     2   ar
     8     2     3   ar
     9     3     4   ar
    10     4     7    1
    11     7     8   ar
    12     8     9   ar
    13     9    10   ar
    14    10    12    1
    15    12    13    1
    16    13    14    1
    17    10    11   ar
    18     4     5   ar
    19     5     6   ar
    20    22    23   ar
    21    23    24   ar
    22    24    19   ar
    23     6     1   ar
    24    11     7   ar
    25    14    15    1
    26    14    16    1
@<TRIPOS>MOLECULE
*****
 24 26 0 0 0
SMALL
GASTEIGER

@<TRIPOS>ATOM
      1 C         138.5295  139.0610  165.9295 C.ar    1  UNL1        0.1453
      2 C         138.1478  140.3298  165.2263 C.ar    1  UNL1        0.0376
      3 C         138.1716  140.3931  163.7279 C.ar    1  UNL1        0.0063
      4 C         138.5772  139.1877  162.9326 C.ar    1  UNL1        0.0395
      5 C         138.9589  137.9190  163.6357 C.ar    1  UNL1        0.0063
      6 C         138.9351  137.8555  165.1342 C.ar    1  UNL1        0.0376
      7 C         138.6010  139.2511  161.4341 C.ar    1  UNL1        0.2058
      8 N         139.2703  138.2675  160.5206 N.ar    1  UNL1       -0.1077
      9 N         139.0427  138.7177  159.1079 N.ar    1  UNL1       -0.0450
     10 N         138.2327  139.9796  159.1484 N.ar    1  UNL1       -0.1495
     11 N         137.9598  140.3093  160.5861 N.ar    1  UNL1       -0.1297
     12 C         137.7760  140.7726  157.9600 C.3     1  UNL1        0.1681
     13 C         138.3156  140.4583  156.5962 C.3     1  UNL1        0.0938
     14 N         138.4790  139.0311  156.1648 N.3     1  UNL1       -0.3194
     15 H         139.1930  138.5821  156.7384 H       1  UNL1        0.1189
     16 H         138.7621  139.0022  155.1853 H       1  UNL1        0.1189
     17 O         138.5057  138.9976  167.4280 O.3     1  UNL1       -0.4535
     18 C         142.2349  142.4332  170.6357 C.3     1  UNL1        0.0310
     19 C         141.3026  141.5743  169.8338 C.ar    1  UNL1       -0.0217
     20 C         141.7320  141.0463  168.4971 C.ar    1  UNL1       -0.0011
     21 C         140.7997  140.1874  167.6952 C.ar    1  UNL1        0.0372
     22 C         139.4380  139.8565  168.2299 C.ar    1  UNL1        0.1453
     23 C         139.0085  140.3845  169.5666 C.ar    1  UNL1        0.0372
     24 C         139.9408  141.2434  170.3685 C.ar    1  UNL1       -0.0011
@<TRIPOS>BOND
     1    18    19    1
     2    19    20   ar
     3    20    21   ar
     4    21    22   ar
     5    22    17    1
     6    17     1    1
     7     1     2   ar
     8     2     3   ar
     9     3     4   ar
    10     4     7    1
    11     7     8   ar
    12     8     9   ar
    13     9    10   ar
    14    10    12    1
    15    12    13    1
    16    13    14    1
    17    10    11   ar
    18     4     5   ar
    19     5     6   ar
    20    22    23   ar
    21    23    24   ar
    22    24    19   ar
    23     6     1   ar
    24    11     7   ar
    25    14    15    1
    26    14    16    1
@<TRIPOS>MOLECULE
*****
 24 26 0 0 0
SMALL
GASTEIGER

@<TRIPOS>ATOM
      1 C         143.1855  138.6772  165.5030 C.ar    1  UNL1        0.1453
      2 C         142.0043  138.0850  164.7928 C.ar    1  UNL1        0.0376
      3 C         141.9659  138.0599  163.2936 C.ar    1  UNL1        0.0063
      4 C         143.1086  138.6270  162.5044 C.ar    1  UNL1        0.0395
      5 C         144.2897  139.2192  163.2145 C.ar    1  UNL1        0.0063
      6 C         144.3281  139.2443  164.7139 C.ar    1  UNL1        0.0376
      7 C         143.0701  138.6018  161.0051 C.ar    1  UNL1        0.2058
      8 N         144.1057  139.1800  160.0868 N.ar    1  UNL1       -0.1077
      9 N         143.6649  138.9296  158.6749 N.ar    1  UNL1       -0.0450
     10 N         142.3569  138.1968  158.7208 N.ar    1  UNL1       -0.1495
     11 N         141.9893  137.9942  160.1609 N.ar    1  UNL1       -0.1297
     12 C         141.5570  137.7457  157.5349 C.3     1  UNL1        0.1681
     13 C         140.0629  137.8788  157.5433 C.3     1  UNL1        0.0938
     14 N         139.2372  137.1259  156.5427 N.3     1  UNL1       -0.3194
     15 H         139.4345  137.4774  155.6057 H       1  UNL1        0.1189
     16 H         138.2474  137.2549  156.7528 H       1  UNL1        0.1189
     17 O         143.2239  138.7023  167.0023 O.3     1  UNL1       -0.4535
     18 C         140.4716  143.1110  170.0005 C.3     1  UNL1        0.0310
     19 C         141.1597  142.0088  169.2509 C.ar    1  UNL1       -0.0217
     20 C         141.4473  140.7040  169.9326 C.ar    1  UNL1       -0.0011
     21 C         142.1353  139.6018  169.1831 C.ar    1  UNL1        0.0372
     22 C         142.5358  139.8045  167.7518 C.ar    1  UNL1        0.1453
     23 C         142.2483  141.1093  167.0701 C.ar    1  UNL1        0.0372
     24 C         141.5602  142.2115  167.8197 C.ar    1  UNL1       -0.0011
@<TRIPOS>BOND
     1    18    19    1
     2    19    20   ar
     3    20    21   ar
     4    21    22   ar
     5    22    17    1
     6    17     1    1
     7     1     2   ar
     8     2     3   ar
     9     3     4   ar
    10     4     7    1
    11     7     8   ar
    12     8     9   ar
    13     9    10   ar
    14    10    12    1
    15    12    13    1
    16    13    14    1
    17    10    11   ar
    18     4     5   ar
    19     5     6   ar
    20    22    23   ar
    21    23    24   ar
    22    24    19   ar
    23     6     1   ar
    24    11     7   ar
    25    14    15    1
    26    14    16    1
@<TRIPOS>MOLECULE
*****
 24 26 0 0 0
SMALL
GASTEIGER

@<TRIPOS>ATOM
      1 C         139.1060  141.1430  165.2131 C.ar    1  UNL1        0.1453
      2 C         138.8637  140.7761  163.7789 C.ar    1  UNL1        0.0376
      3 C         139.0248  141.8088  162.7030 C.ar    1  UNL1        0.0063
      4 C         139.4281  143.2084  163.0612 C.ar    1  UNL1        0.0395
      5 C         139.6704  143.5754  164.4953 C.ar    1  UNL1        0.0063
      6 C         139.5093  142.5427  165.5712 C.ar    1  UNL1        0.0376
      7 C         139.5891  144.2411  161.9852 C.ar    1  UNL1        0.2058
      8 N         139.0337  145.6343  162.0102 N.ar    1  UNL1       -0.1077
      9 N         139.4351  146.3162  160.7358 N.ar    1  UNL1       -0.0450
     10 N         140.2386  145.3444  159.9233 N.ar    1  UNL1       -0.1495
     11 N         140.3337  144.0620  160.6955 N.ar    1  UNL1       -0.1297
     12 C         140.8411  145.6086  158.5754 C.3     1  UNL1        0.1681
     13 C         141.8520  144.6578  158.0061 C.3     1  UNL1        0.0938
     14 N         142.8509  143.9963  158.9085 N.3     1  UNL1       -0.3194
     15 H         143.4786  144.7011  159.2955 H       1  UNL1        0.1189
     16 H         143.3918  143.3152  158.3757 H       1  UNL1        0.1189
     17 O         138.9450  140.1104  166.2890 O.3     1  UNL1       -0.4535
     18 C         143.0146  139.6907  170.6778 C.3     1  UNL1        0.0310
     19 C         141.9972  139.7956  169.5806 C.ar    1  UNL1       -0.0217
     20 C         140.5577  140.0524  169.9147 C.ar    1  UNL1       -0.0011
     21 C         139.5403  140.1573  168.8175 C.ar    1  UNL1        0.0372
     22 C         139.9624  140.0055  167.3862 C.ar    1  UNL1        0.1453
     23 C         141.4020  139.7487  167.0521 C.ar    1  UNL1        0.0372
     24 C         142.4194  139.6438  168.1493 C.ar    1  UNL1       -0.0011
@<TRIPOS>BOND
     1    18    19    1
     2    19    20   ar
     3    20    21   ar
     4    21    22   ar
     5    22    17    1
     6    17     1    1
     7     1     2   ar
     8     2     3   ar
     9     3     4   ar
    10     4     7    1
    11     7     8   ar
    12     8     9   ar
    13     9    10   ar
    14    10    12    1
    15    12    13    1
    16    13    14    1
    17    10    11   ar
    18     4     5   ar
    19     5     6   ar
    20    22    23   ar
    21    23    24   ar
    22    24    19   ar
    23     6     1   ar
    24    11     7   ar
    25    14    15    1
    26    14    16    1
@<TRIPOS>MOLECULE
*****
 24 26 0 0 0
SMALL
GASTEIGER

@<TRIPOS>ATOM
      1 C         143.3572  138.6876  165.8864 C.ar    1  UNL1        0.1453
      2 C         142.1996  138.1030  165.1324 C.ar    1  UNL1        0.0376
      3 C         142.1962  138.1197  163.6325 C.ar    1  UNL1        0.0063
      4 C         143.3504  138.7210  162.8866 C.ar    1  UNL1        0.0395
      5 C         144.5079  139.3056  163.6405 C.ar    1  UNL1        0.0063
      6 C         144.5113  139.2889  165.1404 C.ar    1  UNL1        0.0376
      7 C         143.3470  138.7377  161.3866 C.ar    1  UNL1        0.2058
      8 N         142.9680  137.5940  160.4931 N.ar    1  UNL1       -0.1077
      9 N         143.1087  138.0504  159.0711 N.ar    1  UNL1       -0.0450
     10 N         143.5747  139.4762  159.0859 N.ar    1  UNL1       -0.1495
     11 N         143.7219  139.9009  160.5169 N.ar    1  UNL1       -0.1297
     12 C         143.8458  140.3276  157.8812 C.3     1  UNL1        0.1681
     13 C         143.5032  141.7879  157.9022 C.3     1  UNL1        0.0938
     14 N         144.1197  142.6881  158.9315 N.3     1  UNL1       -0.3194
     15 H         143.7881  142.4217  159.8586 H       1  UNL1        0.1189
     16 H         143.8548  143.6544  158.7403 H       1  UNL1        0.1189
     17 O         143.3605  138.6709  167.3862 O.3     1  UNL1       -0.4535
     18 C         139.9002  142.5074  170.4370 C.3     1  UNL1        0.0310
     19 C         140.7653  141.5483  169.6743 C.ar    1  UNL1       -0.0217
     20 C         141.2392  141.8995  168.2952 C.ar    1  UNL1       -0.0011
     21 C         142.1042  140.9403  167.5325 C.ar    1  UNL1        0.0372
     22 C         142.4955  139.6300  168.1489 C.ar    1  UNL1        0.1453
     23 C         142.0216  139.2789  169.5281 C.ar    1  UNL1        0.0372
     24 C         141.1565  140.2380  170.2908 C.ar    1  UNL1       -0.0011
@<TRIPOS>BOND
     1    18    19    1
     2    19    20   ar
     3    20    21   ar
     4    21    22   ar
     5    22    17    1
     6    17     1    1
     7     1     2   ar
     8     2     3   ar
     9     3     4   ar
    10     4     7    1
    11     7     8   ar
    12     8     9   ar
    13     9    10   ar
    14    10    12    1
    15    12    13    1
    16    13    14    1
    17    10    11   ar
    18     4     5   ar
    19     5     6   ar
    20    22    23   ar
    21    23    24   ar
    22    24    19   ar
    23     6     1   ar
    24    11     7   ar
    25    14    15    1
    26    14    16    1
