@<TRIPOS>MOLECULE
*****
 37 40 0 0 0
SMALL
GASTEIGER

@<TRIPOS>ATOM
      1 O         138.4145  139.3893  159.1799 O.2     1  UNL1       -0.2733
      2 C         139.6798  138.7420  158.7004 C.2     1  UNL1        0.2426
      3 N         140.7412  138.3494  159.6849 N.am    1  UNL1       -0.3018
      4 H         141.5716  137.9245  159.3702 H       1  UNL1        0.1495
      5 C         140.5372  138.6040  161.1491 C.3     1  UNL1        0.1035
      6 C         140.4566  137.7424  162.3743 C.3     1  UNL1        0.0933
      7 N         140.2487  138.9640  163.2196 N.3     1  UNL1       -0.2711
      8 C         140.3293  139.8256  161.9944 C.3     1  UNL1        0.0933
      9 C         140.0448  139.2186  164.6837 C.3     1  UNL1        0.0578
     10 C         138.7295  138.8903  165.3259 C.3     1  UNL1        0.0187
     11 C         138.5256  139.1449  166.7901 C.3     1  UNL1        0.0325
     12 C         139.6369  139.7277  167.6119 C.3     1  UNL1        0.1070
     13 O         138.5801  139.5846  168.6668 O.3     1  UNL1       -0.3827
     14 C         140.9521  140.0559  166.9697 C.3     1  UNL1        0.0325
     15 C         141.1560  139.8014  165.5056 C.3     1  UNL1        0.0187
     16 H         137.7780  139.2084  168.2719 H       1  UNL1        0.2107
     17 C         140.3811  140.2608  168.8001 C.ar    1  UNL1        0.0017
     18 C         141.7347  139.7137  169.1445 C.ar    1  UNL1       -0.0020
     19 C         142.4790  140.2468  170.3327 C.ar    1  UNL1       -0.0002
     20 C         141.8697  141.3270  171.1765 C.ar    1  UNL1       -0.0000
     21 C         140.5163  141.8741  170.8321 C.ar    1  UNL1       -0.0002
     22 C         139.7719  141.3411  169.6439 C.ar    1  UNL1       -0.0020
     23 C         139.8839  138.4874  157.2363 C.3     1  UNL1        0.1759
     24 N         140.3626  137.1451  156.7680 N.am    1  UNL1       -0.2931
     25 C         141.8269  136.8209  156.7920 C.2     1  UNL1        0.2462
     26 O         142.8125  137.8388  157.2842 O.2     1  UNL1       -0.2701
     27 H         139.7157  136.4770  156.4450 H       1  UNL1        0.1502
     28 C         142.3056  135.4786  156.3237 C.ar    1  UNL1        0.0533
     29 C         141.7529  134.8832  155.0628 C.ar    1  UNL1        0.0045
     30 C         142.2316  133.5410  154.5946 C.ar    1  UNL1        0.0001
     31 C         143.2631  132.7942  155.3873 C.ar    1  UNL1        0.0039
     32 C         143.8158  133.3896  156.6482 C.ar    1  UNL1        0.0716
     33 C         143.3371  134.7318  157.1164 C.ar    1  UNL1        0.0084
     34 C         144.8472  132.6428  157.4409 C.3     1  UNL1        0.4186
     35 F         145.8787  131.8960  158.2336 F       1  UNL1       -0.1659
     36 F         144.5753  133.5233  158.6244 F       1  UNL1       -0.1659
     37 F         145.1192  131.7622  156.2574 F       1  UNL1       -0.1659
@<TRIPOS>BOND
     1     1     2    2
     2     2    23    1
     3    23    24    1
     4    24    25   am
     5    25    26    2
     6    25    28    1
     7    28    29   ar
     8    29    30   ar
     9    30    31   ar
    10    31    32   ar
    11    32    34    1
    12    34    35    1
    13    34    36    1
    14    34    37    1
    15    32    33   ar
    16     2     3   am
    17     3     5    1
    18     5     6    1
    19     6     7    1
    20     9     7    1
    21     9    10    1
    22    10    11    1
    23    11    12    1
    24    12    13    1
    25    12    17    1
    26    17    18   ar
    27    18    19   ar
    28    19    20   ar
    29    20    21   ar
    30    21    22   ar
    31    12    14    1
    32    14    15    1
    33     7     8    1
    34    33    28   ar
    35     8     5    1
    36    15     9    1
    37    22    17   ar
    38    24    27    1
    39     3     4    1
    40    13    16    1
@<TRIPOS>MOLECULE
*****
 37 40 0 0 0
SMALL
GASTEIGER

@<TRIPOS>ATOM
      1 O         141.5314  139.7193  159.1803 O.2     1  UNL1       -0.2733
      2 C         142.5770  138.7248  158.7707 C.2     1  UNL1        0.2426
      3 N         143.4167  138.0473  159.8126 N.am    1  UNL1       -0.3018
      4 H         144.1030  137.3946  159.5438 H       1  UNL1        0.1495
      5 C         143.2109  138.3642  161.2643 C.3     1  UNL1        0.1035
      6 C         143.9177  139.2194  162.2738 C.3     1  UNL1        0.0933
      7 N         142.9199  138.8124  163.3172 N.3     1  UNL1       -0.2711
      8 C         142.2131  137.9573  162.3077 C.3     1  UNL1        0.0933
      9 C         142.7141  139.1294  164.7688 C.3     1  UNL1        0.0578
     10 C         143.4877  138.3845  165.8161 C.3     1  UNL1        0.0187
     11 C         143.2819  138.7015  167.2678 C.3     1  UNL1        0.0325
     12 C         142.3026  139.7633  167.6721 C.3     1  UNL1        0.1070
     13 O         142.7955  139.3356  169.0226 O.3     1  UNL1       -0.3827
     14 C         141.5290  140.5081  166.6248 C.3     1  UNL1        0.0325
     15 C         141.7348  140.1912  165.1732 C.3     1  UNL1        0.0187
     16 H         143.4550  138.6320  168.9182 H       1  UNL1        0.2107
     17 C         141.4944  140.6766  168.5454 C.ar    1  UNL1        0.0017
     18 C         141.9961  142.0557  168.8556 C.ar    1  UNL1       -0.0020
     19 C         141.1880  142.9690  169.7290 C.ar    1  UNL1       -0.0002
     20 C         139.8781  142.5031  170.2922 C.ar    1  UNL1       -0.0000
     21 C         139.3764  141.1240  169.9821 C.ar    1  UNL1       -0.0002
     22 C         140.1845  140.2106  169.1087 C.ar    1  UNL1       -0.0020
     23 C         142.7828  138.4079  157.3191 C.3     1  UNL1        0.1759
     24 N         142.5626  137.0114  156.8177 N.am    1  UNL1       -0.2931
     25 C         143.5891  136.3591  155.9399 C.2     1  UNL1        0.2462
     26 O         144.8358  137.1032  155.5633 O.2     1  UNL1       -0.2701
     27 H         141.7443  136.5230  157.0649 H       1  UNL1        0.1502
     28 C         143.3688  134.9625  155.4385 C.ar    1  UNL1        0.0533
     29 C         142.6111  134.7339  154.1643 C.ar    1  UNL1        0.0045
     30 C         142.3909  133.3374  153.6630 C.ar    1  UNL1        0.0001
     31 C         142.9284  132.1696  154.4359 C.ar    1  UNL1        0.0039
     32 C         143.6861  132.3983  155.7101 C.ar    1  UNL1        0.0716
     33 C         143.9063  133.7947  156.2114 C.ar    1  UNL1        0.0084
     34 C         144.2236  131.2305  156.4830 C.3     1  UNL1        0.4186
     35 F         144.7611  130.0626  157.2559 F       1  UNL1       -0.1659
     36 F         142.8320  130.6922  156.6375 F       1  UNL1       -0.1659
     37 F         145.6151  131.7687  156.3285 F       1  UNL1       -0.1659
@<TRIPOS>BOND
     1     1     2    2
     2     2    23    1
     3    23    24    1
     4    24    25   am
     5    25    26    2
     6    25    28    1
     7    28    29   ar
     8    29    30   ar
     9    30    31   ar
    10    31    32   ar
    11    32    34    1
    12    34    35    1
    13    34    36    1
    14    34    37    1
    15    32    33   ar
    16     2     3   am
    17     3     5    1
    18     5     6    1
    19     6     7    1
    20     9     7    1
    21     9    10    1
    22    10    11    1
    23    11    12    1
    24    12    13    1
    25    12    17    1
    26    17    18   ar
    27    18    19   ar
    28    19    20   ar
    29    20    21   ar
    30    21    22   ar
    31    12    14    1
    32    14    15    1
    33     7     8    1
    34    33    28   ar
    35     8     5    1
    36    15     9    1
    37    22    17   ar
    38    24    27    1
    39     3     4    1
    40    13    16    1
@<TRIPOS>MOLECULE
*****
 37 40 0 0 0
SMALL
GASTEIGER

@<TRIPOS>ATOM
      1 O         143.6825  139.2417  160.0097 O.2     1  UNL1       -0.2733
      2 C         142.6392  138.6475  159.1105 C.2     1  UNL1        0.2426
      3 N         141.2747  138.3347  159.6493 N.am    1  UNL1       -0.3018
      4 H         140.5899  137.9448  159.0591 H       1  UNL1        0.1495
      5 C         140.9535  138.6160  161.0873 C.3     1  UNL1        0.1035
      6 C         141.3022  137.9737  162.3972 C.3     1  UNL1        0.0933
      7 N         140.4993  139.0137  163.1209 N.3     1  UNL1       -0.2711
      8 C         140.1506  139.6560  161.8110 C.3     1  UNL1        0.0933
      9 C         140.1782  139.2949  164.5588 C.3     1  UNL1        0.0578
     10 C         138.9641  138.6806  165.1902 C.3     1  UNL1        0.0187
     11 C         138.6430  138.9619  166.6282 C.3     1  UNL1        0.0325
     12 C         139.5359  139.8574  167.4348 C.3     1  UNL1        0.1070
     13 O         138.5080  139.5125  168.4713 O.3     1  UNL1       -0.3827
     14 C         140.7500  140.4717  166.8035 C.3     1  UNL1        0.0325
     15 C         141.0711  140.1905  165.3655 C.3     1  UNL1        0.0187
     16 H         137.8441  138.9208  168.0839 H       1  UNL1        0.2107
     17 C         140.0719  140.6332  168.6014 C.ar    1  UNL1        0.0017
     18 C         140.3100  142.1088  168.4750 C.ar    1  UNL1       -0.0020
     19 C         140.8460  142.8846  169.6416 C.ar    1  UNL1       -0.0002
     20 C         141.1438  142.1848  170.9345 C.ar    1  UNL1       -0.0000
     21 C         140.9056  140.7093  171.0609 C.ar    1  UNL1       -0.0002
     22 C         140.3697  139.9334  169.8943 C.ar    1  UNL1       -0.0020
     23 C         142.9603  138.3663  157.6726 C.3     1  UNL1        0.1759
     24 N         142.6990  137.0054  157.0980 N.am    1  UNL1       -0.2931
     25 C         143.6284  136.4352  156.0680 C.2     1  UNL1        0.2462
     26 O         144.8191  137.2256  155.6125 O.2     1  UNL1       -0.2701
     27 H         141.9176  136.4866  157.3970 H       1  UNL1        0.1502
     28 C         143.3672  135.0744  155.4935 C.ar    1  UNL1        0.0533
     29 C         142.5074  134.9279  154.2731 C.ar    1  UNL1        0.0045
     30 C         142.2462  133.5672  153.6986 C.ar    1  UNL1        0.0001
     31 C         142.8447  132.3528  154.3445 C.ar    1  UNL1        0.0039
     32 C         143.7045  132.4993  155.5649 C.ar    1  UNL1        0.0716
     33 C         143.9657  133.8600  156.1394 C.ar    1  UNL1        0.0084
     34 C         144.3030  131.2850  156.2108 C.3     1  UNL1        0.4186
     35 F         144.9015  130.0706  156.8567 F       1  UNL1       -0.1659
     36 F         143.0120  130.5460  156.0177 F       1  UNL1       -0.1659
     37 F         145.5940  132.0239  156.4038 F       1  UNL1       -0.1659
@<TRIPOS>BOND
     1     1     2    2
     2     2    23    1
     3    23    24    1
     4    24    25   am
     5    25    26    2
     6    25    28    1
     7    28    29   ar
     8    29    30   ar
     9    30    31   ar
    10    31    32   ar
    11    32    34    1
    12    34    35    1
    13    34    36    1
    14    34    37    1
    15    32    33   ar
    16     2     3   am
    17     3     5    1
    18     5     6    1
    19     6     7    1
    20     9     7    1
    21     9    10    1
    22    10    11    1
    23    11    12    1
    24    12    13    1
    25    12    17    1
    26    17    18   ar
    27    18    19   ar
    28    19    20   ar
    29    20    21   ar
    30    21    22   ar
    31    12    14    1
    32    14    15    1
    33     7     8    1
    34    33    28   ar
    35     8     5    1
    36    15     9    1
    37    22    17   ar
    38    24    27    1
    39     3     4    1
    40    13    16    1
@<TRIPOS>MOLECULE
*****
 37 40 0 0 0
SMALL
GASTEIGER

@<TRIPOS>ATOM
      1 O         141.2237  139.1806  159.3010 O.2     1  UNL1       -0.2733
      2 C         142.2059  138.1085  158.9323 C.2     1  UNL1        0.2426
      3 N         143.0473  137.4648  159.9942 N.am    1  UNL1       -0.3018
      4 H         143.6919  136.7612  159.7522 H       1  UNL1        0.1495
      5 C         142.9066  137.8932  161.4249 C.3     1  UNL1        0.1035
      6 C         141.9044  137.6443  162.5129 C.3     1  UNL1        0.0933
      7 N         142.7075  138.4990  163.4481 N.3     1  UNL1       -0.2711
      8 C         143.7097  138.7478  162.3601 C.3     1  UNL1        0.0933
      9 C         142.5668  138.9273  164.8787 C.3     1  UNL1        0.0578
     10 C         143.4023  138.2778  165.9417 C.3     1  UNL1        0.0187
     11 C         143.2615  138.7062  167.3724 C.3     1  UNL1        0.0325
     12 C         142.2852  139.7840  167.7400 C.3     1  UNL1        0.1070
     13 O         142.8498  139.4711  169.0939 O.3     1  UNL1       -0.3827
     14 C         141.4497  140.4335  166.6769 C.3     1  UNL1        0.0325
     15 C         141.5905  140.0052  165.2463 C.3     1  UNL1        0.0187
     16 H         143.5151  138.7700  169.0127 H       1  UNL1        0.2107
     17 C         141.5050  140.7532  168.5778 C.ar    1  UNL1        0.0017
     18 C         142.0632  142.1158  168.8640 C.ar    1  UNL1       -0.0020
     19 C         141.2830  143.0850  169.7018 C.ar    1  UNL1       -0.0002
     20 C         139.9446  142.6916  170.2534 C.ar    1  UNL1       -0.0000
     21 C         139.3865  141.3292  169.9672 C.ar    1  UNL1       -0.0002
     22 C         140.1667  140.3598  169.1293 C.ar    1  UNL1       -0.0020
     23 C         142.3466  137.6801  157.5017 C.3     1  UNL1        0.1759
     24 N         142.7500  136.2724  157.1766 N.am    1  UNL1       -0.2931
     25 C         141.9563  135.4748  156.1847 C.2     1  UNL1        0.2462
     26 O         140.7590  136.0849  155.5180 O.2     1  UNL1       -0.2701
     27 H         143.5358  135.8720  157.6141 H       1  UNL1        0.1502
     28 C         142.3597  134.0671  155.8596 C.ar    1  UNL1        0.0533
     29 C         143.7902  133.6426  156.0125 C.ar    1  UNL1        0.0045
     30 C         144.1936  132.2349  155.6874 C.ar    1  UNL1        0.0001
     31 C         143.1665  131.2519  155.2092 C.ar    1  UNL1        0.0039
     32 C         141.7360  131.6764  155.0562 C.ar    1  UNL1        0.0716
     33 C         141.3326  133.0841  155.3814 C.ar    1  UNL1        0.0084
     34 C         140.7089  130.6933  154.5781 C.3     1  UNL1        0.4186
     35 F         139.6818  129.7102  154.0999 F       1  UNL1       -0.1659
     36 F         141.1737  129.7068  155.6080 F       1  UNL1       -0.1659
     37 F         140.2441  131.6798  153.5481 F       1  UNL1       -0.1659
@<TRIPOS>BOND
     1     1     2    2
     2     2    23    1
     3    23    24    1
     4    24    25   am
     5    25    26    2
     6    25    28    1
     7    28    29   ar
     8    29    30   ar
     9    30    31   ar
    10    31    32   ar
    11    32    34    1
    12    34    35    1
    13    34    36    1
    14    34    37    1
    15    32    33   ar
    16     2     3   am
    17     3     5    1
    18     5     6    1
    19     6     7    1
    20     9     7    1
    21     9    10    1
    22    10    11    1
    23    11    12    1
    24    12    13    1
    25    12    17    1
    26    17    18   ar
    27    18    19   ar
    28    19    20   ar
    29    20    21   ar
    30    21    22   ar
    31    12    14    1
    32    14    15    1
    33     7     8    1
    34    33    28   ar
    35     8     5    1
    36    15     9    1
    37    22    17   ar
    38    24    27    1
    39     3     4    1
    40    13    16    1
@<TRIPOS>MOLECULE
*****
 37 40 0 0 0
SMALL
GASTEIGER

@<TRIPOS>ATOM
      1 O         143.7196  138.8830  159.8683 O.2     1  UNL1       -0.2733
      2 C         142.6014  138.5297  158.9331 C.2     1  UNL1        0.2426
      3 N         141.1942  138.4439  159.4452 N.am    1  UNL1       -0.3018
      4 H         140.4602  138.2119  158.8314 H       1  UNL1        0.1495
      5 C         140.9051  138.7114  160.8926 C.3     1  UNL1        0.1035
      6 C         140.0006  139.6473  161.6382 C.3     1  UNL1        0.0933
      7 N         140.4964  139.0899  162.9395 N.3     1  UNL1       -0.2711
      8 C         141.4009  138.1540  162.1939 C.3     1  UNL1        0.0933
      9 C         140.2073  139.3574  164.3868 C.3     1  UNL1        0.0578
     10 C         139.0151  138.7262  165.0427 C.3     1  UNL1        0.0187
     11 C         138.7261  138.9939  166.4901 C.3     1  UNL1        0.0325
     12 C         139.6292  139.8927  167.2815 C.3     1  UNL1        0.1070
     13 O         138.6302  139.5298  168.3399 O.3     1  UNL1       -0.3827
     14 C         140.8215  140.5239  166.6256 C.3     1  UNL1        0.0325
     15 C         141.1105  140.2563  165.1783 C.3     1  UNL1        0.0187
     16 H         137.9632  138.9342  167.9643 H       1  UNL1        0.2107
     17 C         140.1855  140.6655  168.4406 C.ar    1  UNL1        0.0017
     18 C         140.4044  142.1445  168.3199 C.ar    1  UNL1       -0.0020
     19 C         140.9606  142.9173  169.4789 C.ar    1  UNL1       -0.0002
     20 C         141.2979  142.2111  170.7586 C.ar    1  UNL1       -0.0000
     21 C         141.0790  140.7322  170.8793 C.ar    1  UNL1       -0.0002
     22 C         140.5228  139.9592  169.7203 C.ar    1  UNL1       -0.0020
     23 C         142.8903  138.2621  157.4857 C.3     1  UNL1        0.1759
     24 N         143.3167  136.8926  157.0467 N.am    1  UNL1       -0.2931
     25 C         142.3141  135.9507  156.4488 C.2     1  UNL1        0.2462
     26 O         140.8851  136.3782  156.2898 O.2     1  UNL1       -0.2701
     27 H         144.2546  136.6119  157.1510 H       1  UNL1        0.1502
     28 C         142.7404  134.5811  156.0097 C.ar    1  UNL1        0.0533
     29 C         142.4157  134.1022  154.6259 C.ar    1  UNL1        0.0045
     30 C         142.8420  132.7327  154.1870 C.ar    1  UNL1        0.0001
     31 C         143.5931  131.8422  155.1319 C.ar    1  UNL1        0.0039
     32 C         143.9178  132.3211  156.5157 C.ar    1  UNL1        0.0716
     33 C         143.4915  133.6906  156.9547 C.ar    1  UNL1        0.0084
     34 C         144.6689  131.4306  157.4606 C.3     1  UNL1        0.4186
     35 F         145.4200  130.5401  158.4055 F       1  UNL1       -0.1659
     36 F         145.4771  132.6056  157.9256 F       1  UNL1       -0.1659
     37 F         143.8608  130.2556  156.9956 F       1  UNL1       -0.1659
@<TRIPOS>BOND
     1     1     2    2
     2     2    23    1
     3    23    24    1
     4    24    25   am
     5    25    26    2
     6    25    28    1
     7    28    29   ar
     8    29    30   ar
     9    30    31   ar
    10    31    32   ar
    11    32    34    1
    12    34    35    1
    13    34    36    1
    14    34    37    1
    15    32    33   ar
    16     2     3   am
    17     3     5    1
    18     5     6    1
    19     6     7    1
    20     9     7    1
    21     9    10    1
    22    10    11    1
    23    11    12    1
    24    12    13    1
    25    12    17    1
    26    17    18   ar
    27    18    19   ar
    28    19    20   ar
    29    20    21   ar
    30    21    22   ar
    31    12    14    1
    32    14    15    1
    33     7     8    1
    34    33    28   ar
    35     8     5    1
    36    15     9    1
    37    22    17   ar
    38    24    27    1
    39     3     4    1
    40    13    16    1
@<TRIPOS>MOLECULE
*****
 37 40 0 0 0
SMALL
GASTEIGER

@<TRIPOS>ATOM
      1 O         141.0886  138.4431  158.6809 O.2     1  UNL1       -0.2733
      2 C         142.5459  138.4594  158.3258 C.2     1  UNL1        0.2426
      3 N         143.5666  138.8230  159.3631 N.am    1  UNL1       -0.3018
      4 H         144.5230  138.8337  159.1301 H       1  UNL1        0.1495
      5 C         143.1300  139.1703  160.7556 C.3     1  UNL1        0.1035
      6 C         142.2785  140.2455  161.3630 C.3     1  UNL1        0.0933
      7 N         142.5125  139.6615  162.7247 N.3     1  UNL1       -0.2711
      8 C         143.3639  138.5863  162.1173 C.3     1  UNL1        0.0933
      9 C         142.0759  140.0089  164.1170 C.3     1  UNL1        0.0578
     10 C         140.8370  139.3881  164.6914 C.3     1  UNL1        0.0187
     11 C         140.4004  139.7355  166.0839 C.3     1  UNL1        0.0325
     12 C         141.2027  140.7036  166.9018 C.3     1  UNL1        0.1070
     13 O         140.1108  140.3800  167.8780 O.3     1  UNL1       -0.3827
     14 C         142.4416  141.3243  166.3275 C.3     1  UNL1        0.0325
     15 C         142.8782  140.9770  164.9351 C.3     1  UNL1        0.0187
     16 H         139.4961  139.7457  167.4770 H       1  UNL1        0.2107
     17 C         141.6258  141.5593  168.0589 C.ar    1  UNL1        0.0017
     18 C         143.0232  141.4586  168.5947 C.ar    1  UNL1       -0.0020
     19 C         143.4463  142.3143  169.7517 C.ar    1  UNL1       -0.0002
     20 C         142.4719  143.2708  170.3729 C.ar    1  UNL1       -0.0000
     21 C         141.0745  143.3715  169.8372 C.ar    1  UNL1       -0.0002
     22 C         140.6514  142.5158  168.6801 C.ar    1  UNL1       -0.0020
     23 C         142.9825  138.1121  156.9335 C.3     1  UNL1        0.1759
     24 N         143.4372  136.7184  156.6157 N.am    1  UNL1       -0.2931
     25 C         142.4575  135.7112  156.0907 C.2     1  UNL1        0.2462
     26 O         141.0230  136.0977  155.8835 O.2     1  UNL1       -0.2701
     27 H         144.3787  136.4647  156.7517 H       1  UNL1        0.1502
     28 C         142.9122  134.3175  155.7729 C.ar    1  UNL1        0.0533
     29 C         142.5989  133.7129  154.4365 C.ar    1  UNL1        0.0045
     30 C         143.0536  132.3192  154.1187 C.ar    1  UNL1        0.0001
     31 C         143.8216  131.5303  155.1375 C.ar    1  UNL1        0.0039
     32 C         144.1348  132.1349  156.4739 C.ar    1  UNL1        0.0716
     33 C         143.6801  133.5286  156.7917 C.ar    1  UNL1        0.0084
     34 C         144.9027  131.3460  157.4927 C.3     1  UNL1        0.4186
     35 F         145.6706  130.5570  158.5114 F       1  UNL1       -0.1659
     36 F         144.8529  130.1428  156.5984 F       1  UNL1       -0.1659
     37 F         144.9525  132.5492  158.3870 F       1  UNL1       -0.1659
@<TRIPOS>BOND
     1     1     2    2
     2     2    23    1
     3    23    24    1
     4    24    25   am
     5    25    26    2
     6    25    28    1
     7    28    29   ar
     8    29    30   ar
     9    30    31   ar
    10    31    32   ar
    11    32    34    1
    12    34    35    1
    13    34    36    1
    14    34    37    1
    15    32    33   ar
    16     2     3   am
    17     3     5    1
    18     5     6    1
    19     6     7    1
    20     9     7    1
    21     9    10    1
    22    10    11    1
    23    11    12    1
    24    12    13    1
    25    12    17    1
    26    17    18   ar
    27    18    19   ar
    28    19    20   ar
    29    20    21   ar
    30    21    22   ar
    31    12    14    1
    32    14    15    1
    33     7     8    1
    34    33    28   ar
    35     8     5    1
    36    15     9    1
    37    22    17   ar
    38    24    27    1
    39     3     4    1
    40    13    16    1
@<TRIPOS>MOLECULE
*****
 37 40 0 0 0
SMALL
GASTEIGER

@<TRIPOS>ATOM
      1 O         141.8488  144.9431  158.8635 O.2     1  UNL1       -0.2733
      2 C         140.4237  144.6263  158.5188 C.2     1  UNL1        0.2426
      3 N         139.5114  144.0470  159.5590 N.am    1  UNL1       -0.3018
      4 H         138.5761  143.8390  159.3327 H       1  UNL1        0.1495
      5 C         140.0242  143.7845  160.9440 C.3     1  UNL1        0.1035
      6 C         140.2546  144.6229  162.1663 C.3     1  UNL1        0.0933
      7 N         140.7493  143.4133  162.9027 N.3     1  UNL1       -0.2711
      8 C         140.5189  142.5749  161.6804 C.3     1  UNL1        0.0933
      9 C         141.2620  143.1509  164.2877 C.3     1  UNL1        0.0578
     10 C         142.7359  143.1951  164.5628 C.3     1  UNL1        0.0187
     11 C         143.2485  142.9326  165.9478 C.3     1  UNL1        0.0325
     12 C         142.2873  142.6260  167.0578 C.3     1  UNL1        0.1070
     13 O         143.5838  142.5551  167.8089 O.3     1  UNL1       -0.3827
     14 C         140.8134  142.5817  166.7827 C.3     1  UNL1        0.0325
     15 C         140.3007  142.8442  165.3977 C.3     1  UNL1        0.0187
     16 H         144.3189  142.7374  167.2028 H       1  UNL1        0.2107
     17 C         141.7764  142.2947  168.4286 C.ar    1  UNL1        0.0017
     18 C         142.4036  141.1812  169.2139 C.ar    1  UNL1       -0.0020
     19 C         141.8926  140.8499  170.5847 C.ar    1  UNL1       -0.0002
     20 C         140.7544  141.6321  171.1702 C.ar    1  UNL1       -0.0000
     21 C         140.1272  142.7455  170.3849 C.ar    1  UNL1       -0.0002
     22 C         140.6382  143.0769  169.0140 C.ar    1  UNL1       -0.0020
     23 C         139.9110  144.8888  157.1338 C.3     1  UNL1        0.1759
     24 N         140.1942  146.2015  156.4654 N.am    1  UNL1       -0.2931
     25 C         139.2262  146.7571  155.4634 C.2     1  UNL1        0.2462
     26 O         137.9749  146.0002  155.1297 O.2     1  UNL1       -0.2701
     27 H         141.0155  146.6983  156.6844 H       1  UNL1        0.1502
     28 C         139.5094  148.0698  154.7950 C.ar    1  UNL1        0.0533
     29 C         140.3269  148.1105  153.5380 C.ar    1  UNL1        0.0045
     30 C         140.6101  149.4231  152.8697 C.ar    1  UNL1        0.0001
     31 C         140.0758  150.6951  153.4583 C.ar    1  UNL1        0.0039
     32 C         139.2584  150.6545  154.7153 C.ar    1  UNL1        0.0716
     33 C         138.9752  149.3419  155.3837 C.ar    1  UNL1        0.0084
     34 C         138.7241  151.9265  155.3040 C.3     1  UNL1        0.4186
     35 F         138.1899  153.1986  155.8927 F       1  UNL1       -0.1659
     36 F         138.2242  152.3421  153.9522 F       1  UNL1       -0.1659
     37 F         139.2241  151.5109  156.6558 F       1  UNL1       -0.1659
@<TRIPOS>BOND
     1     1     2    2
     2     2    23    1
     3    23    24    1
     4    24    25   am
     5    25    26    2
     6    25    28    1
     7    28    29   ar
     8    29    30   ar
     9    30    31   ar
    10    31    32   ar
    11    32    34    1
    12    34    35    1
    13    34    36    1
    14    34    37    1
    15    32    33   ar
    16     2     3   am
    17     3     5    1
    18     5     6    1
    19     6     7    1
    20     9     7    1
    21     9    10    1
    22    10    11    1
    23    11    12    1
    24    12    13    1
    25    12    17    1
    26    17    18   ar
    27    18    19   ar
    28    19    20   ar
    29    20    21   ar
    30    21    22   ar
    31    12    14    1
    32    14    15    1
    33     7     8    1
    34    33    28   ar
    35     8     5    1
    36    15     9    1
    37    22    17   ar
    38    24    27    1
    39     3     4    1
    40    13    16    1
@<TRIPOS>MOLECULE
*****
 37 40 0 0 0
SMALL
GASTEIGER

@<TRIPOS>ATOM
      1 O         140.1477  143.8192  159.5571 O.2     1  UNL1       -0.2733
      2 C         139.1632  142.9848  158.7926 C.2     1  UNL1        0.2426
      3 N         138.4041  141.8944  159.4887 N.am    1  UNL1       -0.3018
      4 H         137.7579  141.3467  158.9869 H       1  UNL1        0.1495
      5 C         138.6294  141.6383  160.9495 C.3     1  UNL1        0.1035
      6 C         137.9496  142.0618  162.2177 C.3     1  UNL1        0.0933
      7 N         138.9481  141.2763  163.0152 N.3     1  UNL1       -0.2711
      8 C         139.6279  140.8528  161.7470 C.3     1  UNL1        0.0933
      9 C         139.1734  141.0203  164.4759 C.3     1  UNL1        0.0578
     10 C         138.4582  139.8923  165.1588 C.3     1  UNL1        0.0187
     11 C         138.6836  139.6363  166.6195 C.3     1  UNL1        0.0325
     12 C         139.6241  140.5083  167.3974 C.3     1  UNL1        0.1070
     13 O         139.1822  139.5700  168.4810 O.3     1  UNL1       -0.3827
     14 C         140.3393  141.6362  166.7146 C.3     1  UNL1        0.0325
     15 C         140.1140  141.8922  165.2539 C.3     1  UNL1        0.0187
     16 H         138.5522  138.9288  168.1165 H       1  UNL1        0.2107
     17 C         140.4112  141.0544  168.5516 C.ar    1  UNL1        0.0017
     18 C         140.4663  142.5346  168.7884 C.ar    1  UNL1       -0.0020
     19 C         141.2534  143.0807  169.9426 C.ar    1  UNL1       -0.0002
     20 C         141.9853  142.1466  170.8601 C.ar    1  UNL1       -0.0000
     21 C         141.9302  140.6665  170.6234 C.ar    1  UNL1       -0.0002
     22 C         141.1431  140.1202  169.4691 C.ar    1  UNL1       -0.0020
     23 C         138.9378  143.2408  157.3319 C.3     1  UNL1        0.1759
     24 N         139.4921  144.4798  156.6933 N.am    1  UNL1       -0.2931
     25 C         138.7070  145.1921  155.6321 C.2     1  UNL1        0.2462
     26 O         137.3676  144.6655  155.2095 O.2     1  UNL1       -0.2701
     27 H         140.3712  144.8254  156.9707 H       1  UNL1        0.1502
     28 C         139.2613  146.4311  154.9935 C.ar    1  UNL1        0.0533
     29 C         140.3182  146.3207  153.9349 C.ar    1  UNL1        0.0045
     30 C         140.8724  147.5596  153.2964 C.ar    1  UNL1        0.0001
     31 C         140.3697  148.9090  153.7165 C.ar    1  UNL1        0.0039
     32 C         139.3128  149.0194  154.7751 C.ar    1  UNL1        0.0716
     33 C         138.7586  147.7805  155.4136 C.ar    1  UNL1        0.0084
     34 C         138.8102  150.3688  155.1952 C.3     1  UNL1        0.4186
     35 F         138.3075  151.7182  155.6153 F       1  UNL1       -0.1659
     36 F         139.4497  150.9836  153.9856 F       1  UNL1       -0.1659
     37 F         138.1706  149.7540  156.4047 F       1  UNL1       -0.1659
@<TRIPOS>BOND
     1     1     2    2
     2     2    23    1
     3    23    24    1
     4    24    25   am
     5    25    26    2
     6    25    28    1
     7    28    29   ar
     8    29    30   ar
     9    30    31   ar
    10    31    32   ar
    11    32    34    1
    12    34    35    1
    13    34    36    1
    14    34    37    1
    15    32    33   ar
    16     2     3   am
    17     3     5    1
    18     5     6    1
    19     6     7    1
    20     9     7    1
    21     9    10    1
    22    10    11    1
    23    11    12    1
    24    12    13    1
    25    12    17    1
    26    17    18   ar
    27    18    19   ar
    28    19    20   ar
    29    20    21   ar
    30    21    22   ar
    31    12    14    1
    32    14    15    1
    33     7     8    1
    34    33    28   ar
    35     8     5    1
    36    15     9    1
    37    22    17   ar
    38    24    27    1
    39     3     4    1
    40    13    16    1
@<TRIPOS>MOLECULE
*****
 37 40 0 0 0
SMALL
GASTEIGER

@<TRIPOS>ATOM
      1 O         143.7578  142.8515  162.0943 O.2     1  UNL1       -0.2733
      2 C         142.9160  141.6877  162.5268 C.2     1  UNL1        0.2426
      3 N         141.6133  141.4074  161.8382 N.am    1  UNL1       -0.3018
      4 H         141.0608  140.6435  162.1221 H       1  UNL1        0.1495
      5 C         141.1522  142.2909  160.7170 C.3     1  UNL1        0.1035
      6 C         141.7030  142.6780  159.3766 C.3     1  UNL1        0.0933
      7 N         140.5003  143.5403  159.1315 N.3     1  UNL1       -0.2711
      8 C         139.9495  143.1531  160.4719 C.3     1  UNL1        0.0933
      9 C         140.0393  144.4237  158.0103 C.3     1  UNL1        0.0578
     10 C         139.2515  143.8433  156.8735 C.3     1  UNL1        0.0187
     11 C         138.7905  144.7268  155.7523 C.3     1  UNL1        0.0325
     12 C         139.1173  146.1907  155.7680 C.3     1  UNL1        0.1070
     13 O         138.3505  146.1088  154.4815 O.3     1  UNL1       -0.3827
     14 C         139.9051  146.7711  156.9049 C.3     1  UNL1        0.0325
     15 C         140.3661  145.8876  158.0261 C.3     1  UNL1        0.0187
     16 H         138.0653  145.1936  154.3327 H       1  UNL1        0.2107
     17 C         139.1778  147.6261  155.3370 C.ar    1  UNL1        0.0017
     18 C         138.5391  148.6899  156.1799 C.ar    1  UNL1       -0.0020
     19 C         138.5996  150.1253  155.7488 C.ar    1  UNL1       -0.0002
     20 C         139.2988  150.4970  154.4748 C.ar    1  UNL1       -0.0000
     21 C         139.9375  149.4333  153.6320 C.ar    1  UNL1       -0.0002
     22 C         139.8770  147.9978  154.0630 C.ar    1  UNL1       -0.0020
     23 C         143.3770  140.8042  163.6479 C.3     1  UNL1        0.1759
     24 N         142.9321  141.0820  165.0533 N.am    1  UNL1       -0.2931
     25 C         143.0704  140.0233  166.1068 C.2     1  UNL1        0.2462
     26 O         143.6537  138.6869  165.7551 O.2     1  UNL1       -0.2701
     27 H         142.5492  141.9591  165.2841 H       1  UNL1        0.1502
     28 C         142.6255  140.3011  167.5122 C.ar    1  UNL1        0.0533
     29 C         142.6513  139.2063  168.5373 C.ar    1  UNL1        0.0045
     30 C         142.2064  139.4841  169.9425 C.ar    1  UNL1        0.0001
     31 C         141.7356  140.8567  170.3227 C.ar    1  UNL1        0.0039
     32 C         141.7098  141.9514  169.2977 C.ar    1  UNL1        0.0716
     33 C         142.1547  141.6736  167.8924 C.ar    1  UNL1        0.0084
     34 C         141.2390  143.3239  169.6778 C.3     1  UNL1        0.4186
     35 F         140.7683  144.6965  170.0580 F       1  UNL1       -0.1659
     36 F         142.5195  143.5565  170.4237 F       1  UNL1       -0.1659
     37 F         139.9586  143.0914  168.9319 F       1  UNL1       -0.1659
@<TRIPOS>BOND
     1     1     2    2
     2     2    23    1
     3    23    24    1
     4    24    25   am
     5    25    26    2
     6    25    28    1
     7    28    29   ar
     8    29    30   ar
     9    30    31   ar
    10    31    32   ar
    11    32    34    1
    12    34    35    1
    13    34    36    1
    14    34    37    1
    15    32    33   ar
    16     2     3   am
    17     3     5    1
    18     5     6    1
    19     6     7    1
    20     9     7    1
    21     9    10    1
    22    10    11    1
    23    11    12    1
    24    12    13    1
    25    12    17    1
    26    17    18   ar
    27    18    19   ar
    28    19    20   ar
    29    20    21   ar
    30    21    22   ar
    31    12    14    1
    32    14    15    1
    33     7     8    1
    34    33    28   ar
    35     8     5    1
    36    15     9    1
    37    22    17   ar
    38    24    27    1
    39     3     4    1
    40    13    16    1
