@<TRIPOS>MOLECULE
*****
 37 41 0 0 0
SMALL
GASTEIGER

@<TRIPOS>ATOM
      1 N         137.8542  142.9727  162.9147 N.3     1  UNL1       -0.2687
      2 C         137.6636  141.8378  163.8768 C.3     1  UNL1        0.0737
      3 C         137.6860  140.4224  163.3809 C.3     1  UNL1        0.0359
      4 C         137.8991  140.1418  161.9229 C.3     1  UNL1        0.0901
      5 C         138.0897  141.2767  160.9608 C.3     1  UNL1        0.1911
      6 F         138.3028  140.9961  159.5027 F       1  UNL1       -0.2343
      7 C         138.0673  142.6922  161.4567 C.3     1  UNL1        0.1092
      8 N         137.9215  138.7263  161.4270 N.3     1  UNL1       -0.2913
      9 H         137.3396  138.6984  160.5897 H       1  UNL1        0.1236
     10 C         139.2258  138.0774  161.0696 C.3     1  UNL1        0.1152
     11 C         140.4196  138.2524  161.9608 C.ar    1  UNL1        0.0765
     12 C         140.5700  137.4033  163.1881 C.ar    1  UNL1        0.0193
     13 C         141.7638  137.5782  164.0794 C.ar    1  UNL1        0.0411
     14 C         142.8071  138.6022  163.7433 C.ar    1  UNL1        0.1708
     15 C         142.6566  139.4513  162.5159 C.ar    1  UNL1        0.1682
     16 N         141.4628  139.2764  161.6247 N.ar    1  UNL1       -0.2304
     17 N         143.6998  140.4754  162.1799 N.am    1  UNL1       -0.2639
     18 C         144.8936  140.6503  163.0712 C.2     1  UNL1        0.2718
     19 O         145.9369  141.6743  162.7351 O.2     1  UNL1       -0.2707
     20 C         145.0441  139.8012  164.2985 C.3     1  UNL1        0.2898
     21 O         144.0008  138.7771  164.6346 O.3     1  UNL1       -0.4628
     22 H         143.6011  141.0327  161.3743 H       1  UNL1        0.1565
     23 C         137.8318  144.3882  163.4107 C.3     1  UNL1        0.0970
     24 C         138.9106  144.8777  164.3307 C.3     1  UNL1        0.1264
     25 C         140.8812  142.1068  167.2783 C.ar    1  UNL1        0.1403
     26 C         142.3014  141.6733  167.0663 C.ar    1  UNL1        0.0385
     27 C         143.0648  142.1635  165.8718 C.ar    1  UNL1        0.0237
     28 C         142.4080  143.0871  164.8892 C.ar    1  UNL1        0.0975
     29 N         143.1714  143.5773  163.6947 N.ar    1  UNL1       -0.2374
     30 C         142.5146  144.5010  162.7122 C.ar    1  UNL1        0.1594
     31 C         141.0943  144.9345  162.9241 C.ar    1  UNL1        0.2803
     32 O         140.4375  145.8581  161.9416 O.2     1  UNL1       -0.2653
     33 N         140.3309  144.4443  164.1187 N.ar    1  UNL1       -0.2913
     34 C         140.9878  143.5206  165.1012 C.ar    1  UNL1        0.0832
     35 C         140.2244  143.0304  166.2958 C.ar    1  UNL1        0.0557
     36 C         139.5787  140.2170  168.4958 C.3     1  UNL1        0.2525
     37 O         140.1178  141.6166  168.4728 O.3     1  UNL1       -0.4714
@<TRIPOS>BOND
     1    36    37    1
     2    37    25    1
     3    25    26   ar
     4    26    27   ar
     5    27    28   ar
     6    28    29   ar
     7    29    30   ar
     8    30    31   ar
     9    31    32    2
    10    31    33   ar
    11    33    24    1
    12    24    23    1
    13    23     1    1
    14     1     2    1
    15     2     3    1
    16     3     4    1
    17     4     8    1
    18     8    10    1
    19    10    11    1
    20    11    12   ar
    21    12    13   ar
    22    13    14   ar
    23    14    15   ar
    24    15    16   ar
    25    15    17    1
    26    17    18   am
    27    18    19    2
    28    18    20    1
    29    20    21    1
    30     4     5    1
    31     5     6    1
    32     5     7    1
    33    33    34   ar
    34    34    35   ar
    35    35    25   ar
    36    34    28   ar
    37     7     1    1
    38    16    11   ar
    39    21    14    1
    40     8     9    1
    41    17    22    1
@<TRIPOS>MOLECULE
*****
 37 41 0 0 0
SMALL
GASTEIGER

@<TRIPOS>ATOM
      1 N         141.1623  144.7272  162.8004 N.3     1  UNL1       -0.2687
      2 C         141.5279  144.1512  161.4645 C.3     1  UNL1        0.0737
      3 C         142.8925  143.5674  161.2475 C.3     1  UNL1        0.0359
      4 C         143.8915  143.5597  162.3664 C.3     1  UNL1        0.0901
      5 C         143.5259  144.1357  163.7023 C.3     1  UNL1        0.1911
      6 F         144.5249  144.1279  164.8212 F       1  UNL1       -0.2343
      7 C         142.1613  144.7194  163.9193 C.3     1  UNL1        0.1092
      8 N         145.2561  142.9760  162.1494 N.3     1  UNL1       -0.2913
      9 H         145.9294  143.7017  162.3955 H       1  UNL1        0.1236
     10 C         145.6673  141.7360  162.8866 C.3     1  UNL1        0.1152
     11 C         144.6422  140.7003  163.2424 C.ar    1  UNL1        0.0765
     12 C         144.7246  139.9845  164.5579 C.ar    1  UNL1        0.0193
     13 C         143.6995  138.9488  164.9138 C.ar    1  UNL1        0.0411
     14 C         142.5921  138.6290  163.9540 C.ar    1  UNL1        0.1708
     15 C         142.5097  139.3448  162.6383 C.ar    1  UNL1        0.1682
     16 N         143.5348  140.3805  162.2826 N.ar    1  UNL1       -0.2304
     17 N         141.4023  139.0249  161.6785 N.am    1  UNL1       -0.2639
     18 C         140.3772  137.9892  162.0344 C.2     1  UNL1        0.2718
     19 O         139.2697  137.6694  161.0746 O.2     1  UNL1       -0.2707
     20 C         140.4595  137.2734  163.3500 C.3     1  UNL1        0.2898
     21 O         141.5670  137.5933  164.3098 O.3     1  UNL1       -0.4628
     22 H         141.3482  139.4947  160.8151 H       1  UNL1        0.1565
     23 C         139.7976  145.3109  163.0173 C.3     1  UNL1        0.0970
     24 C         138.8438  144.6539  163.9705 C.3     1  UNL1        0.1264
     25 C         140.4090  142.3339  167.4943 C.ar    1  UNL1        0.1403
     26 C         140.2870  140.8391  167.5221 C.ar    1  UNL1        0.0385
     27 C         139.6431  140.1177  166.3753 C.ar    1  UNL1        0.0237
     28 C         139.1214  140.8910  165.2007 C.ar    1  UNL1        0.0975
     29 N         138.4776  140.1696  164.0540 N.ar    1  UNL1       -0.2374
     30 C         137.9558  140.9429  162.8794 C.ar    1  UNL1        0.1594
     31 C         138.0779  142.4378  162.8515 C.ar    1  UNL1        0.2803
     32 O         137.5561  143.2111  161.6769 O.2     1  UNL1       -0.2653
     33 N         138.7217  143.1592  163.9983 N.ar    1  UNL1       -0.2913
     34 C         139.2435  142.3858  165.1729 C.ar    1  UNL1        0.0832
     35 C         139.8873  143.1072  166.3197 C.ar    1  UNL1        0.0557
     36 C         140.3141  143.2143  169.9368 C.3     1  UNL1        0.2525
     37 O         141.0529  143.0553  168.6410 O.3     1  UNL1       -0.4714
@<TRIPOS>BOND
     1    36    37    1
     2    37    25    1
     3    25    26   ar
     4    26    27   ar
     5    27    28   ar
     6    28    29   ar
     7    29    30   ar
     8    30    31   ar
     9    31    32    2
    10    31    33   ar
    11    33    24    1
    12    24    23    1
    13    23     1    1
    14     1     2    1
    15     2     3    1
    16     3     4    1
    17     4     8    1
    18     8    10    1
    19    10    11    1
    20    11    12   ar
    21    12    13   ar
    22    13    14   ar
    23    14    15   ar
    24    15    16   ar
    25    15    17    1
    26    17    18   am
    27    18    19    2
    28    18    20    1
    29    20    21    1
    30     4     5    1
    31     5     6    1
    32     5     7    1
    33    33    34   ar
    34    34    35   ar
    35    35    25   ar
    36    34    28   ar
    37     7     1    1
    38    16    11   ar
    39    21    14    1
    40     8     9    1
    41    17    22    1
@<TRIPOS>MOLECULE
*****
 37 41 0 0 0
SMALL
GASTEIGER

@<TRIPOS>ATOM
      1 N         141.8648  138.1895  163.8722 N.3     1  UNL1       -0.2687
      2 C         142.8292  138.5268  164.9705 C.3     1  UNL1        0.0737
      3 C         144.0609  139.3274  164.6674 C.3     1  UNL1        0.0359
      4 C         144.3283  139.7907  163.2661 C.3     1  UNL1        0.0901
      5 C         143.3639  139.4535  162.1678 C.3     1  UNL1        0.1911
      6 F         143.6313  139.9169  160.7664 F       1  UNL1       -0.2343
      7 C         142.1322  138.6529  162.4708 C.3     1  UNL1        0.1092
      8 N         145.5600  140.5914  162.9630 N.3     1  UNL1       -0.2913
      9 H         145.6897  140.5607  161.9518 H       1  UNL1        0.1236
     10 C         145.6344  142.0345  163.3655 C.3     1  UNL1        0.1152
     11 C         144.4305  142.9170  163.2187 C.ar    1  UNL1        0.0765
     12 C         143.7908  143.5210  164.4336 C.ar    1  UNL1        0.0193
     13 C         142.5868  144.4036  164.2869 C.ar    1  UNL1        0.0411
     14 C         142.0225  144.6822  162.9252 C.ar    1  UNL1        0.1708
     15 C         142.6623  144.0782  161.7103 C.ar    1  UNL1        0.1682
     16 N         143.8662  143.1956  161.8571 N.ar    1  UNL1       -0.2304
     17 N         142.0981  144.3567  160.3487 N.am    1  UNL1       -0.2639
     18 C         140.8941  145.2394  160.2020 C.2     1  UNL1        0.2718
     19 O         140.3299  145.5179  158.8403 O.2     1  UNL1       -0.2707
     20 C         140.2544  145.8433  161.4168 C.3     1  UNL1        0.2898
     21 O         140.8186  145.5648  162.7785 O.3     1  UNL1       -0.4628
     22 H         142.5179  143.9603  159.5513 H       1  UNL1        0.1565
     23 C         140.6331  137.3889  164.1753 C.3     1  UNL1        0.0970
     24 C         139.4089  138.0701  164.7114 C.3     1  UNL1        0.1264
     25 C         140.3093  141.9606  166.7857 C.ar    1  UNL1        0.1403
     26 C         139.8477  143.2552  166.1850 C.ar    1  UNL1        0.0385
     27 C         139.0859  143.2530  164.8929 C.ar    1  UNL1        0.0237
     28 C         138.7857  141.9561  164.2014 C.ar    1  UNL1        0.0975
     29 N         138.0239  141.9539  162.9093 N.ar    1  UNL1       -0.2374
     30 C         137.7237  140.6571  162.2178 C.ar    1  UNL1        0.1594
     31 C         138.1854  139.3624  162.8185 C.ar    1  UNL1        0.2803
     32 O         137.8852  138.0656  162.1271 O.2     1  UNL1       -0.2653
     33 N         138.9472  139.3647  164.1107 N.ar    1  UNL1       -0.2913
     34 C         139.2474  140.6616  164.8021 C.ar    1  UNL1        0.0832
     35 C         140.0092  140.6638  166.0943 C.ar    1  UNL1        0.0557
     36 C         142.5570  142.1678  168.0721 C.3     1  UNL1        0.2525
     37 O         141.0712  141.9628  168.0778 O.3     1  UNL1       -0.4714
@<TRIPOS>BOND
     1    36    37    1
     2    37    25    1
     3    25    26   ar
     4    26    27   ar
     5    27    28   ar
     6    28    29   ar
     7    29    30   ar
     8    30    31   ar
     9    31    32    2
    10    31    33   ar
    11    33    24    1
    12    24    23    1
    13    23     1    1
    14     1     2    1
    15     2     3    1
    16     3     4    1
    17     4     8    1
    18     8    10    1
    19    10    11    1
    20    11    12   ar
    21    12    13   ar
    22    13    14   ar
    23    14    15   ar
    24    15    16   ar
    25    15    17    1
    26    17    18   am
    27    18    19    2
    28    18    20    1
    29    20    21    1
    30     4     5    1
    31     5     6    1
    32     5     7    1
    33    33    34   ar
    34    34    35   ar
    35    35    25   ar
    36    34    28   ar
    37     7     1    1
    38    16    11   ar
    39    21    14    1
    40     8     9    1
    41    17    22    1
@<TRIPOS>MOLECULE
*****
 37 41 0 0 0
SMALL
GASTEIGER

@<TRIPOS>ATOM
      1 N         142.9482  143.9930  162.5956 N.3     1  UNL1       -0.2687
      2 C         142.9302  143.1744  161.3387 C.3     1  UNL1        0.0737
      3 C         141.6470  142.9847  160.5856 C.3     1  UNL1        0.0359
      4 C         140.3818  143.6136  161.0892 C.3     1  UNL1        0.0901
      5 C         140.3998  144.4322  162.3460 C.3     1  UNL1        0.1911
      6 F         139.1345  145.0610  162.8497 F       1  UNL1       -0.2343
      7 C         141.6830  144.6219  163.0992 C.3     1  UNL1        0.1092
      8 N         139.0985  143.4239  160.3360 N.3     1  UNL1       -0.2913
      9 H         139.3303  142.9152  159.4828 H       1  UNL1        0.1236
     10 C         137.9535  142.6966  160.9764 C.3     1  UNL1        0.1152
     11 C         138.2011  141.4235  161.7298 C.ar    1  UNL1        0.0765
     12 C         138.7220  140.2151  161.0098 C.ar    1  UNL1        0.0193
     13 C         138.9696  138.9418  161.7633 C.ar    1  UNL1        0.0411
     14 C         138.6962  138.8771  163.2367 C.ar    1  UNL1        0.1708
     15 C         138.1753  140.0855  163.9567 C.ar    1  UNL1        0.1682
     16 N         137.9278  141.3587  163.2033 N.ar    1  UNL1       -0.2304
     17 N         137.9020  140.0208  165.4302 N.am    1  UNL1       -0.2639
     18 C         138.1496  138.7475  166.1837 C.2     1  UNL1        0.2718
     19 O         137.8762  138.6827  167.6571 O.2     1  UNL1       -0.2707
     20 C         138.6705  137.5391  165.4637 C.3     1  UNL1        0.2898
     21 O         138.9438  137.6039  163.9902 O.3     1  UNL1       -0.4628
     22 H         137.5601  140.8139  165.9028 H       1  UNL1        0.1565
     23 C         144.2315  144.1827  163.3488 C.3     1  UNL1        0.0970
     24 C         144.4203  143.5288  164.6855 C.3     1  UNL1        0.1264
     25 C         141.3036  141.8703  167.4758 C.ar    1  UNL1        0.1403
     26 C         141.1353  140.3863  167.6152 C.ar    1  UNL1        0.0385
     27 C         142.0059  139.4552  166.8246 C.ar    1  UNL1        0.0237
     28 C         143.0447  140.0080  165.8945 C.ar    1  UNL1        0.0975
     29 N         143.9153  139.0768  165.1039 N.ar    1  UNL1       -0.2374
     30 C         144.9542  139.6296  164.1738 C.ar    1  UNL1        0.1594
     31 C         145.1225  141.1137  164.0343 C.ar    1  UNL1        0.2803
     32 O         146.1614  141.6665  163.1042 O.2     1  UNL1       -0.2653
     33 N         144.2520  142.0448  164.8249 N.ar    1  UNL1       -0.2913
     34 C         143.2131  141.4919  165.7551 C.ar    1  UNL1        0.0832
     35 C         142.3425  142.4231  166.5457 C.ar    1  UNL1        0.0557
     36 C         140.2419  142.5816  169.7378 C.3     1  UNL1        0.2525
     37 O         140.4331  142.8014  168.2664 O.3     1  UNL1       -0.4714
@<TRIPOS>BOND
     1    36    37    1
     2    37    25    1
     3    25    26   ar
     4    26    27   ar
     5    27    28   ar
     6    28    29   ar
     7    29    30   ar
     8    30    31   ar
     9    31    32    2
    10    31    33   ar
    11    33    24    1
    12    24    23    1
    13    23     1    1
    14     1     2    1
    15     2     3    1
    16     3     4    1
    17     4     8    1
    18     8    10    1
    19    10    11    1
    20    11    12   ar
    21    12    13   ar
    22    13    14   ar
    23    14    15   ar
    24    15    16   ar
    25    15    17    1
    26    17    18   am
    27    18    19    2
    28    18    20    1
    29    20    21    1
    30     4     5    1
    31     5     6    1
    32     5     7    1
    33    33    34   ar
    34    34    35   ar
    35    35    25   ar
    36    34    28   ar
    37     7     1    1
    38    16    11   ar
    39    21    14    1
    40     8     9    1
    41    17    22    1
@<TRIPOS>MOLECULE
*****
 37 41 0 0 0
SMALL
GASTEIGER

@<TRIPOS>ATOM
      1 N         142.6335  138.4125  163.9911 N.3     1  UNL1       -0.2687
      2 C         142.6337  138.4133  162.4911 C.3     1  UNL1        0.0737
      3 C         141.3813  138.0691  161.7408 C.3     1  UNL1        0.0359
      4 C         140.1287  137.7242  162.4904 C.3     1  UNL1        0.0901
      5 C         140.1285  137.7234  163.9904 C.3     1  UNL1        0.1911
      6 F         138.8758  137.3785  164.7401 F       1  UNL1       -0.2343
      7 C         141.3809  138.0676  164.7408 C.3     1  UNL1        0.1092
      8 N         138.8763  137.3800  161.7401 N.3     1  UNL1       -0.2913
      9 H         138.5580  136.4787  162.0961 H       1  UNL1        0.1236
     10 C         137.6962  138.3049  161.7862 C.3     1  UNL1        0.1152
     11 C         137.9067  139.7900  161.7820 C.ar    1  UNL1        0.0765
     12 C         138.1923  140.5034  160.4938 C.ar    1  UNL1        0.0193
     13 C         138.4028  141.9886  160.4896 C.ar    1  UNL1        0.0411
     14 C         138.3277  142.7603  161.7736 C.ar    1  UNL1        0.1708
     15 C         138.0422  142.0469  163.0619 C.ar    1  UNL1        0.1682
     16 N         137.8317  140.5618  163.0660 N.ar    1  UNL1       -0.2304
     17 N         137.9671  142.8186  164.3459 N.am    1  UNL1       -0.2639
     18 C         138.1776  144.3038  164.3417 C.2     1  UNL1        0.2718
     19 O         138.1026  145.0756  165.6257 O.2     1  UNL1       -0.2707
     20 C         138.4632  145.0172  163.0535 C.3     1  UNL1        0.2898
     21 O         138.5382  144.2454  161.7694 O.3     1  UNL1       -0.4628
     22 H         137.7797  142.3504  165.1914 H       1  UNL1        0.1565
     23 C         143.8859  138.7567  164.7415 C.3     1  UNL1        0.0970
     24 C         144.2700  140.1929  164.9409 C.3     1  UNL1        0.1264
     25 C         141.6872  141.0203  168.5318 C.ar    1  UNL1        0.1403
     26 C         140.6396  142.0922  168.4712 C.ar    1  UNL1        0.0385
     27 C         140.4529  142.8882  167.2136 C.ar    1  UNL1        0.0237
     28 C         141.3139  142.6125  166.0167 C.ar    1  UNL1        0.0975
     29 N         141.1272  143.4085  164.7591 N.ar    1  UNL1       -0.2374
     30 C         141.9881  143.1327  163.5622 C.ar    1  UNL1        0.1594
     31 C         143.0358  142.0608  163.6228 C.ar    1  UNL1        0.2803
     32 O         143.8967  141.7851  162.4258 O.2     1  UNL1       -0.2653
     33 N         143.2224  141.2648  164.8803 N.ar    1  UNL1       -0.2913
     34 C         142.3614  141.5406  166.0773 C.ar    1  UNL1        0.0832
     35 C         142.5481  140.7446  167.3349 C.ar    1  UNL1        0.0557
     36 C         141.8377  140.9096  171.1231 C.3     1  UNL1        0.2525
     37 O         141.8738  140.2243  169.7894 O.3     1  UNL1       -0.4714
@<TRIPOS>BOND
     1    36    37    1
     2    37    25    1
     3    25    26   ar
     4    26    27   ar
     5    27    28   ar
     6    28    29   ar
     7    29    30   ar
     8    30    31   ar
     9    31    32    2
    10    31    33   ar
    11    33    24    1
    12    24    23    1
    13    23     1    1
    14     1     2    1
    15     2     3    1
    16     3     4    1
    17     4     8    1
    18     8    10    1
    19    10    11    1
    20    11    12   ar
    21    12    13   ar
    22    13    14   ar
    23    14    15   ar
    24    15    16   ar
    25    15    17    1
    26    17    18   am
    27    18    19    2
    28    18    20    1
    29    20    21    1
    30     4     5    1
    31     5     6    1
    32     5     7    1
    33    33    34   ar
    34    34    35   ar
    35    35    25   ar
    36    34    28   ar
    37     7     1    1
    38    16    11   ar
    39    21    14    1
    40     8     9    1
    41    17    22    1
@<TRIPOS>MOLECULE
*****
 37 41 0 0 0
SMALL
GASTEIGER

@<TRIPOS>ATOM
      1 N         140.6664  140.0254  160.6024 N.3     1  UNL1       -0.2687
      2 C         141.2255  138.6875  160.9861 C.3     1  UNL1        0.0737
      3 C         142.5948  138.5923  161.5909 C.3     1  UNL1        0.0359
      4 C         143.4050  139.8351  161.8121 C.3     1  UNL1        0.0901
      5 C         142.8459  141.1731  161.4285 C.3     1  UNL1        0.1911
      6 F         143.6562  142.4159  161.6497 F       1  UNL1       -0.2343
      7 C         141.4766  141.2682  160.8236 C.3     1  UNL1        0.1092
      8 N         144.7744  139.7399  162.4170 N.3     1  UNL1       -0.2913
      9 H         145.2771  140.5837  162.1418 H       1  UNL1        0.1236
     10 C         144.9304  139.6082  163.9031 C.3     1  UNL1        0.1152
     11 C         144.0247  140.3721  164.8229 C.ar    1  UNL1        0.0765
     12 C         144.1526  141.8625  164.9340 C.ar    1  UNL1        0.0193
     13 C         143.2469  142.6265  165.8538 C.ar    1  UNL1        0.0411
     14 C         142.2133  141.9001  166.6626 C.ar    1  UNL1        0.1708
     15 C         142.0855  140.4096  166.5514 C.ar    1  UNL1        0.1682
     16 N         142.9911  139.6457  165.6316 N.ar    1  UNL1       -0.2304
     17 N         141.0519  139.6832  167.3602 N.am    1  UNL1       -0.2639
     18 C         140.1462  140.4472  168.2800 C.2     1  UNL1        0.2718
     19 O         139.1127  139.7208  169.0888 O.2     1  UNL1       -0.2707
     20 C         140.2741  141.9376  168.3911 C.3     1  UNL1        0.2898
     21 O         141.3077  142.6640  167.5824 O.3     1  UNL1       -0.4628
     22 H         140.9680  138.7050  167.2873 H       1  UNL1        0.1565
     23 C         139.2970  140.1206  159.9976 C.3     1  UNL1        0.0970
     24 C         138.0997  140.3180  160.8793 C.3     1  UNL1        0.1264
     25 C         138.5033  144.3393  162.8583 C.ar    1  UNL1        0.1403
     26 C         138.6740  144.4294  164.3458 C.ar    1  UNL1        0.0385
     27 C         138.7102  143.1790  165.1737 C.ar    1  UNL1        0.0237
     28 C         138.5757  141.8386  164.5140 C.ar    1  UNL1        0.0975
     29 N         138.6118  140.5883  165.3419 N.ar    1  UNL1       -0.2374
     30 C         138.4773  139.2479  164.6822 C.ar    1  UNL1        0.1594
     31 C         138.3066  139.1578  163.1947 C.ar    1  UNL1        0.2803
     32 O         138.1720  137.8174  162.5350 O.2     1  UNL1       -0.2653
     33 N         138.2704  140.4081  162.3668 N.ar    1  UNL1       -0.2913
     34 C         138.4050  141.7486  163.0265 C.ar    1  UNL1        0.0832
     35 C         138.3688  142.9989  162.1987 C.ar    1  UNL1        0.0557
     36 C         139.7447  146.2900  161.6734 C.3     1  UNL1        0.2525
     37 O         138.4672  145.5896  162.0305 O.3     1  UNL1       -0.4714
@<TRIPOS>BOND
     1    36    37    1
     2    37    25    1
     3    25    26   ar
     4    26    27   ar
     5    27    28   ar
     6    28    29   ar
     7    29    30   ar
     8    30    31   ar
     9    31    32    2
    10    31    33   ar
    11    33    24    1
    12    24    23    1
    13    23     1    1
    14     1     2    1
    15     2     3    1
    16     3     4    1
    17     4     8    1
    18     8    10    1
    19    10    11    1
    20    11    12   ar
    21    12    13   ar
    22    13    14   ar
    23    14    15   ar
    24    15    16   ar
    25    15    17    1
    26    17    18   am
    27    18    19    2
    28    18    20    1
    29    20    21    1
    30     4     5    1
    31     5     6    1
    32     5     7    1
    33    33    34   ar
    34    34    35   ar
    35    35    25   ar
    36    34    28   ar
    37     7     1    1
    38    16    11   ar
    39    21    14    1
    40     8     9    1
    41    17    22    1
@<TRIPOS>MOLECULE
*****
 37 41 0 0 0
SMALL
GASTEIGER

@<TRIPOS>ATOM
      1 N         141.5839  138.5854  164.5293 N.3     1  UNL1       -0.2687
      2 C         142.7580  138.7829  165.4417 C.3     1  UNL1        0.0737
      3 C         144.0159  139.4117  164.9200 C.3     1  UNL1        0.0359
      4 C         144.0997  139.8429  163.4858 C.3     1  UNL1        0.0901
      5 C         142.9256  139.6454  162.5734 C.3     1  UNL1        0.1911
      6 F         143.0095  140.0767  161.1391 F       1  UNL1       -0.2343
      7 C         141.6677  139.0167  163.0951 C.3     1  UNL1        0.1092
      8 N         145.3576  140.4717  162.9639 N.3     1  UNL1       -0.2913
      9 H         145.4090  140.2468  161.9704 H       1  UNL1        0.1236
     10 C         145.5612  141.9530  163.0837 C.3     1  UNL1        0.1152
     11 C         144.3855  142.8808  162.9998 C.ar    1  UNL1        0.0765
     12 C         143.8353  143.5087  164.2460 C.ar    1  UNL1        0.0193
     13 C         142.6596  144.4365  164.1622 C.ar    1  UNL1        0.0411
     14 C         142.0342  144.7364  162.8321 C.ar    1  UNL1        0.1708
     15 C         142.5845  144.1085  161.5859 C.ar    1  UNL1        0.1682
     16 N         143.7602  143.1807  161.6698 N.ar    1  UNL1       -0.2304
     17 N         141.9592  144.4084  160.2559 N.am    1  UNL1       -0.2639
     18 C         140.7835  145.3363  160.1721 C.2     1  UNL1        0.2718
     19 O         140.1581  145.6362  158.8421 O.2     1  UNL1       -0.2707
     20 C         140.2332  145.9641  161.4182 C.3     1  UNL1        0.2898
     21 O         140.8586  145.6642  162.7483 O.3     1  UNL1       -0.4628
     22 H         142.3203  143.9963  159.4380 H       1  UNL1        0.1565
     23 C         140.3259  137.9566  165.0512 C.3     1  UNL1        0.0970
     24 C         139.3644  138.7685  165.8674 C.3     1  UNL1        0.1264
     25 C         137.7549  141.5067  162.6797 C.ar    1  UNL1        0.1403
     26 C         137.9408  142.9901  162.8014 C.ar    1  UNL1        0.0385
     27 C         138.6631  143.5608  163.9857 C.ar    1  UNL1        0.0237
     28 C         139.1996  142.6481  165.0483 C.ar    1  UNL1        0.0975
     29 N         139.9220  143.2188  166.2325 N.ar    1  UNL1       -0.2374
     30 C         140.4585  142.3061  167.2951 C.ar    1  UNL1        0.1594
     31 C         140.2726  140.8226  167.1734 C.ar    1  UNL1        0.2803
     32 O         140.8091  139.9099  168.2360 O.2     1  UNL1       -0.2653
     33 N         139.5503  140.2519  165.9891 N.ar    1  UNL1       -0.2913
     34 C         139.0138  141.1647  164.9266 C.ar    1  UNL1        0.0832
     35 C         138.2914  140.5940  163.7423 C.ar    1  UNL1        0.0557
     36 C         137.6379  139.8017  160.7229 C.3     1  UNL1        0.2525
     37 O         137.0325  140.9360  161.4955 O.3     1  UNL1       -0.4714
@<TRIPOS>BOND
     1    36    37    1
     2    37    25    1
     3    25    26   ar
     4    26    27   ar
     5    27    28   ar
     6    28    29   ar
     7    29    30   ar
     8    30    31   ar
     9    31    32    2
    10    31    33   ar
    11    33    24    1
    12    24    23    1
    13    23     1    1
    14     1     2    1
    15     2     3    1
    16     3     4    1
    17     4     8    1
    18     8    10    1
    19    10    11    1
    20    11    12   ar
    21    12    13   ar
    22    13    14   ar
    23    14    15   ar
    24    15    16   ar
    25    15    17    1
    26    17    18   am
    27    18    19    2
    28    18    20    1
    29    20    21    1
    30     4     5    1
    31     5     6    1
    32     5     7    1
    33    33    34   ar
    34    34    35   ar
    35    35    25   ar
    36    34    28   ar
    37     7     1    1
    38    16    11   ar
    39    21    14    1
    40     8     9    1
    41    17    22    1
@<TRIPOS>MOLECULE
*****
 37 41 0 0 0
SMALL
GASTEIGER

@<TRIPOS>ATOM
      1 N         143.2505  138.9960  161.7373 N.3     1  UNL1       -0.2687
      2 C         143.6273  138.7324  163.1651 C.3     1  UNL1        0.0737
      3 C         144.4930  139.7087  163.9048 C.3     1  UNL1        0.0359
      4 C         144.9819  140.9487  163.2168 C.3     1  UNL1        0.0901
      5 C         144.6051  141.2123  161.7890 C.3     1  UNL1        0.1911
      6 F         145.0940  142.4523  161.1010 F       1  UNL1       -0.2343
      7 C         143.7394  140.2359  161.0493 C.3     1  UNL1        0.1092
      8 N         145.8476  141.9251  163.9565 N.3     1  UNL1       -0.2913
      9 H         146.4361  142.3830  163.2605 H       1  UNL1        0.1236
     10 C         145.2196  143.0133  164.7759 C.3     1  UNL1        0.1152
     11 C         143.7490  143.2851  164.6608 C.ar    1  UNL1        0.0765
     12 C         142.7906  142.6445  165.6205 C.ar    1  UNL1        0.0193
     13 C         141.3198  142.9162  165.5055 C.ar    1  UNL1        0.0411
     14 C         140.8076  143.8286  164.4307 C.ar    1  UNL1        0.1708
     15 C         141.7660  144.4692  163.4709 C.ar    1  UNL1        0.1682
     16 N         143.2367  144.1974  163.5860 N.ar    1  UNL1       -0.2304
     17 N         141.2538  145.3815  162.3961 N.am    1  UNL1       -0.2639
     18 C         139.7830  145.6533  162.2811 C.2     1  UNL1        0.2718
     19 O         139.2708  146.5656  161.2063 O.2     1  UNL1       -0.2707
     20 C         138.8247  145.0127  163.2408 C.3     1  UNL1        0.2898
     21 O         139.3369  144.1003  164.3156 O.3     1  UNL1       -0.4628
     22 H         141.8828  145.8020  161.7662 H       1  UNL1        0.1565
     23 C         142.3847  138.0195  160.9976 C.3     1  UNL1        0.0970
     24 C         141.0256  137.6707  161.5278 C.3     1  UNL1        0.1264
     25 C         139.4589  139.7199  165.2151 C.ar    1  UNL1        0.1403
     26 C         138.3346  140.7066  165.1043 C.ar    1  UNL1        0.0385
     27 C         137.7326  141.0104  163.7644 C.ar    1  UNL1        0.0237
     28 C         138.2549  140.3273  162.5353 C.ar    1  UNL1        0.0975
     29 N         137.6528  140.6310  161.1954 N.ar    1  UNL1       -0.2374
     30 C         138.1751  139.9480  159.9663 C.ar    1  UNL1        0.1594
     31 C         139.2994  138.9612  160.0771 C.ar    1  UNL1        0.2803
     32 O         139.8216  138.2782  158.8480 O.2     1  UNL1       -0.2653
     33 N         139.9014  138.6575  161.4170 N.ar    1  UNL1       -0.2913
     34 C         139.3791  139.3406  162.6461 C.ar    1  UNL1        0.0832
     35 C         139.9811  139.0369  163.9860 C.ar    1  UNL1        0.0557
     36 C         139.7595  140.2984  167.7300 C.3     1  UNL1        0.2525
     37 O         140.0609  139.4162  166.5550 O.3     1  UNL1       -0.4714
@<TRIPOS>BOND
     1    36    37    1
     2    37    25    1
     3    25    26   ar
     4    26    27   ar
     5    27    28   ar
     6    28    29   ar
     7    29    30   ar
     8    30    31   ar
     9    31    32    2
    10    31    33   ar
    11    33    24    1
    12    24    23    1
    13    23     1    1
    14     1     2    1
    15     2     3    1
    16     3     4    1
    17     4     8    1
    18     8    10    1
    19    10    11    1
    20    11    12   ar
    21    12    13   ar
    22    13    14   ar
    23    14    15   ar
    24    15    16   ar
    25    15    17    1
    26    17    18   am
    27    18    19    2
    28    18    20    1
    29    20    21    1
    30     4     5    1
    31     5     6    1
    32     5     7    1
    33    33    34   ar
    34    34    35   ar
    35    35    25   ar
    36    34    28   ar
    37     7     1    1
    38    16    11   ar
    39    21    14    1
    40     8     9    1
    41    17    22    1
@<TRIPOS>MOLECULE
*****
 37 41 0 0 0
SMALL
GASTEIGER

@<TRIPOS>ATOM
      1 N         137.8931  142.7726  163.0195 N.3     1  UNL1       -0.2687
      2 C         138.0195  142.5551  161.5407 C.3     1  UNL1        0.0737
      3 C         138.1514  141.1638  160.9959 C.3     1  UNL1        0.0359
      4 C         138.1569  139.9900  161.9298 C.3     1  UNL1        0.0901
      5 C         138.0304  140.2076  163.4086 C.3     1  UNL1        0.1911
      6 F         138.0359  139.0338  164.3425 F       1  UNL1       -0.2343
      7 C         137.8985  141.5989  163.9534 C.3     1  UNL1        0.1092
      8 N         138.2888  138.5987  161.3850 N.3     1  UNL1       -0.2913
      9 H         137.5977  138.5073  160.6404 H       1  UNL1        0.1236
     10 C         139.5986  138.1358  160.8194 C.3     1  UNL1        0.1152
     11 C         140.8774  138.4422  161.5410 C.ar    1  UNL1        0.0765
     12 C         142.0174  139.0839  160.8072 C.ar    1  UNL1        0.0193
     13 C         143.2963  139.3903  161.5289 C.ar    1  UNL1        0.0411
     14 C         143.4350  139.0550  162.9843 C.ar    1  UNL1        0.1708
     15 C         142.2949  138.4133  163.7181 C.ar    1  UNL1        0.1682
     16 N         141.0162  138.1069  162.9965 N.ar    1  UNL1       -0.2304
     17 N         142.4337  138.0780  165.1736 N.am    1  UNL1       -0.2639
     18 C         143.7125  138.3844  165.8952 C.2     1  UNL1        0.2718
     19 O         143.8513  138.0491  167.3506 O.2     1  UNL1       -0.2707
     20 C         144.8526  139.0262  165.1614 C.3     1  UNL1        0.2898
     21 O         144.7138  139.3614  163.7059 O.3     1  UNL1       -0.4628
     22 H         141.6854  137.6568  165.6552 H       1  UNL1        0.1565
     23 C         137.7612  144.1640  163.5643 C.3     1  UNL1        0.0970
     24 C         138.9334  144.8237  164.2282 C.3     1  UNL1        0.1264
     25 C         141.1883  142.2342  167.1368 C.ar    1  UNL1        0.1403
     26 C         142.5829  141.7847  166.8157 C.ar    1  UNL1        0.0385
     27 C         143.2258  142.1984  165.5252 C.ar    1  UNL1        0.0237
     28 C         142.4742  143.0616  164.5557 C.ar    1  UNL1        0.0975
     29 N         143.1171  143.4753  163.2651 N.ar    1  UNL1       -0.2374
     30 C         142.3655  144.3384  162.2956 C.ar    1  UNL1        0.1594
     31 C         140.9709  144.7879  162.6167 C.ar    1  UNL1        0.2803
     32 O         140.2192  145.6511  161.6472 O.2     1  UNL1       -0.2653
     33 N         140.3279  144.3742  163.9072 N.ar    1  UNL1       -0.2913
     34 C         141.0796  143.5110  164.8767 C.ar    1  UNL1        0.0832
     35 C         140.4367  143.0973  166.1673 C.ar    1  UNL1        0.0557
     36 C         139.8088  140.5167  168.5141 C.3     1  UNL1        0.2525
     37 O         140.5454  141.8205  168.4273 O.3     1  UNL1       -0.4714
@<TRIPOS>BOND
     1    36    37    1
     2    37    25    1
     3    25    26   ar
     4    26    27   ar
     5    27    28   ar
     6    28    29   ar
     7    29    30   ar
     8    30    31   ar
     9    31    32    2
    10    31    33   ar
    11    33    24    1
    12    24    23    1
    13    23     1    1
    14     1     2    1
    15     2     3    1
    16     3     4    1
    17     4     8    1
    18     8    10    1
    19    10    11    1
    20    11    12   ar
    21    12    13   ar
    22    13    14   ar
    23    14    15   ar
    24    15    16   ar
    25    15    17    1
    26    17    18   am
    27    18    19    2
    28    18    20    1
    29    20    21    1
    30     4     5    1
    31     5     6    1
    32     5     7    1
    33    33    34   ar
    34    34    35   ar
    35    35    25   ar
    36    34    28   ar
    37     7     1    1
    38    16    11   ar
    39    21    14    1
    40     8     9    1
    41    17    22    1
