@<TRIPOS>MOLECULE
*****
 30 33 0 0 0
SMALL
GASTEIGER

@<TRIPOS>ATOM
      1 C         140.9082  143.1086  164.6876 C.ar    1  UNL1        0.1143
      2 C         140.1941  144.2479  164.0227 C.ar    1  UNL1        0.0850
      3 CL        139.1538  145.1251  164.6540 Cl      1  UNL1       -0.0799
      4 C         140.7027  144.3560  162.6158 C.ar    1  UNL1        0.0574
      5 C         140.3622  145.2924  161.4946 C.ar    1  UNL1        0.0631
      6 CL        139.3337  146.3649  161.6993 Cl      1  UNL1       -0.0821
      7 C         141.0503  145.1564  160.1687 C.ar    1  UNL1        0.0353
      8 C         142.0788  144.0839  159.9640 C.ar    1  UNL1        0.1366
      9 N         142.4193  143.1475  161.0852 N.ar    1  UNL1       -0.2236
     10 C         141.7313  143.2835  162.4111 C.ar    1  UNL1        0.1460
     11 N         141.8582  142.5126  163.6916 N.ar    1  UNL1       -0.3061
     12 C         142.7744  141.3498  163.9335 C.3     1  UNL1        0.1031
     13 C         144.2568  141.5660  164.0088 C.3     1  UNL1        0.0255
     14 C         145.1730  140.4032  164.2507 C.3     1  UNL1        0.0191
     15 C         144.6068  139.0242  164.4173 C.3     1  UNL1        0.0687
     16 N         143.1244  138.8080  164.3420 N.3     1  UNL1       -0.2959
     17 C         142.2082  139.9708  164.1001 C.3     1  UNL1        0.0914
     18 H         142.8423  138.3904  165.2288 H       1  UNL1        0.1233
     19 C         142.7669  143.9478  158.6380 C.2     1  UNL1        0.2606
     20 N         142.7390  145.0836  157.6586 N.am    1  UNL1       -0.3241
     21 O         143.4828  142.6761  158.2916 O.2     1  UNL1       -0.2687
     22 H         142.2692  145.9183  157.8860 H       1  UNL1        0.1453
     23 H         143.1906  144.9943  156.7883 H       1  UNL1        0.1453
     24 C         140.5068  142.1844  167.5134 C.1     1  UNL1       -0.0820
     25 C         140.7075  142.6465  166.1005 C.1     1  UNL1       -0.0459
     26 C         140.5668  143.1150  169.4187 C.3     1  UNL1        0.0181
     27 C         140.3062  141.7223  168.9262 C.3     1  UNL1        0.1088
     28 C         140.0456  140.3297  168.4337 C.3     1  UNL1        0.1565
     29 O         139.8449  139.8676  169.8466 O.3     1  UNL1       -0.3516
     30 C         140.1055  141.2602  170.3391 C.3     1  UNL1        0.1565
@<TRIPOS>BOND
     1    26    27    1
     2    27    24    1
     3    24    25    3
     4    25     1    1
     5     1     2   ar
     6     2     3    1
     7     2     4   ar
     8     4     5   ar
     9     5     6    1
    10     5     7   ar
    11     7     8   ar
    12     8    19    1
    13    19    20   am
    14    19    21    2
    15     8     9   ar
    16     9    10   ar
    17    10    11   ar
    18    12    11    1
    19    12    13    1
    20    13    14    1
    21    14    15    1
    22    15    16    1
    23    16    17    1
    24    27    28    1
    25    28    29    1
    26    29    30    1
    27    30    27    1
    28    11     1   ar
    29    17    12    1
    30    10     4   ar
    31    20    22    1
    32    20    23    1
    33    16    18    1
@<TRIPOS>MOLECULE
*****
 30 33 0 0 0
SMALL
GASTEIGER

@<TRIPOS>ATOM
      1 C         141.8476  140.6065  164.8172 C.ar    1  UNL1        0.1143
      2 C         142.3510  139.7431  165.9358 C.ar    1  UNL1        0.0850
      3 CL        143.1210  138.4647  165.7847 Cl      1  UNL1       -0.0799
      4 C         141.9494  140.3826  167.2318 C.ar    1  UNL1        0.0574
      5 C         142.1710  139.9814  168.6601 C.ar    1  UNL1        0.0631
      6 CL        142.9227  138.7228  168.9775 Cl      1  UNL1       -0.0821
      7 C         141.6410  140.8389  169.7708 C.ar    1  UNL1        0.0353
      8 C         140.8893  142.0975  169.4533 C.ar    1  UNL1        0.1366
      9 N         140.6677  142.4987  168.0251 N.ar    1  UNL1       -0.2236
     10 C         141.1977  141.6412  166.9143 C.ar    1  UNL1        0.1460
     11 N         141.1348  141.7796  165.4220 N.ar    1  UNL1       -0.3061
     12 C         140.4749  142.8953  164.6671 C.3     1  UNL1        0.1031
     13 C         139.0599  142.7457  164.1927 C.3     1  UNL1        0.0255
     14 C         138.4000  143.8614  163.4378 C.3     1  UNL1        0.0191
     15 C         139.1553  145.1266  163.1573 C.3     1  UNL1        0.0687
     16 N         140.5704  145.2763  163.6317 N.3     1  UNL1       -0.2959
     17 C         141.2302  144.1606  164.3866 C.3     1  UNL1        0.0914
     18 H         140.5924  146.0958  164.2385 H       1  UNL1        0.1233
     19 C         140.3592  142.9550  170.5641 C.2     1  UNL1        0.2606
     20 N         139.9937  144.3852  170.2984 N.am    1  UNL1       -0.3241
     21 O         140.1948  142.3821  171.9406 O.2     1  UNL1       -0.2687
     22 H         140.1016  144.7612  169.3950 H       1  UNL1        0.1453
     23 H         139.6458  144.9480  171.0275 H       1  UNL1        0.1453
     24 C         142.2037  140.0797  161.8854 C.1     1  UNL1       -0.0820
     25 C         142.0257  140.3431  163.3513 C.1     1  UNL1       -0.0459
     26 C         140.9541  140.2067  160.1759 C.3     1  UNL1        0.0181
     27 C         142.3818  139.8162  160.4195 C.3     1  UNL1        0.1088
     28 C         143.8095  139.4258  160.6631 C.3     1  UNL1        0.1565
     29 O         143.9876  139.1624  159.1972 O.3     1  UNL1       -0.3516
     30 C         142.5599  139.5528  158.9536 C.3     1  UNL1        0.1565
@<TRIPOS>BOND
     1    26    27    1
     2    27    24    1
     3    24    25    3
     4    25     1    1
     5     1     2   ar
     6     2     3    1
     7     2     4   ar
     8     4     5   ar
     9     5     6    1
    10     5     7   ar
    11     7     8   ar
    12     8    19    1
    13    19    20   am
    14    19    21    2
    15     8     9   ar
    16     9    10   ar
    17    10    11   ar
    18    12    11    1
    19    12    13    1
    20    13    14    1
    21    14    15    1
    22    15    16    1
    23    16    17    1
    24    27    28    1
    25    28    29    1
    26    29    30    1
    27    30    27    1
    28    11     1   ar
    29    17    12    1
    30    10     4   ar
    31    20    22    1
    32    20    23    1
    33    16    18    1
@<TRIPOS>MOLECULE
*****
 30 33 0 0 0
SMALL
GASTEIGER

@<TRIPOS>ATOM
      1 C         140.0499  141.2314  164.5414 C.ar    1  UNL1        0.1143
      2 C         139.3449  140.6124  165.7119 C.ar    1  UNL1        0.0850
      3 CL        138.0938  139.7871  165.6518 Cl      1  UNL1       -0.0799
      4 C         140.1106  140.9637  166.9529 C.ar    1  UNL1        0.0574
      5 C         139.8873  140.6303  168.3982 C.ar    1  UNL1        0.0631
      6 CL        138.7090  139.7942  168.8016 Cl      1  UNL1       -0.0821
      7 C         140.8421  141.1329  169.4401 C.ar    1  UNL1        0.0353
      8 C         142.0204  141.9690  169.0367 C.ar    1  UNL1        0.1366
      9 N         142.2438  142.3024  167.5914 N.ar    1  UNL1       -0.2236
     10 C         141.2889  141.7998  166.5495 C.ar    1  UNL1        0.1460
     11 N         141.2513  141.9652  165.0592 N.ar    1  UNL1       -0.3061
     12 C         142.2414  142.7302  164.2318 C.3     1  UNL1        0.1031
     13 C         142.1841  144.2284  164.1885 C.3     1  UNL1        0.0255
     14 C         143.1742  144.9933  163.3612 C.3     1  UNL1        0.0191
     15 C         144.2217  144.2600  162.5770 C.3     1  UNL1        0.0687
     16 N         144.2791  142.7617  162.6202 N.3     1  UNL1       -0.2959
     17 C         143.2890  141.9968  163.4476 C.3     1  UNL1        0.0914
     18 H         145.2060  142.5124  162.9651 H       1  UNL1        0.1233
     19 C         142.9752  142.4716  170.0787 C.2     1  UNL1        0.2606
     20 N         142.5024  142.6932  171.4848 N.am    1  UNL1       -0.3241
     21 O         144.4030  142.7526  169.7144 O.2     1  UNL1       -0.2687
     22 H         141.5653  142.5088  171.7239 H       1  UNL1        0.1453
     23 H         143.1291  143.0231  172.1687 H       1  UNL1        0.1453
     24 C         139.2052  141.0360  161.6694 C.1     1  UNL1       -0.0820
     25 C         139.6275  141.1337  163.1054 C.1     1  UNL1       -0.0459
     26 C         138.5446  142.4190  160.2028 C.3     1  UNL1        0.0181
     27 C         138.7829  140.9383  160.2334 C.3     1  UNL1        0.1088
     28 C         139.0212  139.4577  160.2641 C.3     1  UNL1        0.1565
     29 O         138.5989  139.3600  158.8281 O.3     1  UNL1       -0.3516
     30 C         138.3606  140.8406  158.7974 C.3     1  UNL1        0.1565
@<TRIPOS>BOND
     1    26    27    1
     2    27    24    1
     3    24    25    3
     4    25     1    1
     5     1     2   ar
     6     2     3    1
     7     2     4   ar
     8     4     5   ar
     9     5     6    1
    10     5     7   ar
    11     7     8   ar
    12     8    19    1
    13    19    20   am
    14    19    21    2
    15     8     9   ar
    16     9    10   ar
    17    10    11   ar
    18    12    11    1
    19    12    13    1
    20    13    14    1
    21    14    15    1
    22    15    16    1
    23    16    17    1
    24    27    28    1
    25    28    29    1
    26    29    30    1
    27    30    27    1
    28    11     1   ar
    29    17    12    1
    30    10     4   ar
    31    20    22    1
    32    20    23    1
    33    16    18    1
@<TRIPOS>MOLECULE
*****
 30 33 0 0 0
SMALL
GASTEIGER

@<TRIPOS>ATOM
      1 C         142.5847  141.2108  163.9179 C.ar    1  UNL1        0.1143
      2 C         142.9448  140.2325  164.9964 C.ar    1  UNL1        0.0850
      3 CL        143.7863  139.0025  164.8260 Cl      1  UNL1       -0.0799
      4 C         142.3157  140.7002  166.2753 C.ar    1  UNL1        0.0574
      5 C         142.3281  140.1358  167.6650 C.ar    1  UNL1        0.0631
      6 CL        143.0771  138.8684  167.9532 Cl      1  UNL1       -0.0821
      7 C         141.5916  140.8386  168.7665 C.ar    1  UNL1        0.0353
      8 C         140.8427  142.1060  168.4784 C.ar    1  UNL1        0.1366
      9 N         140.8303  142.6704  167.0887 N.ar    1  UNL1       -0.2236
     10 C         141.5668  141.9675  165.9872 C.ar    1  UNL1        0.1460
     11 N         141.7330  142.2830  164.5302 N.ar    1  UNL1       -0.3061
     12 C         141.1499  143.4636  163.8117 C.3     1  UNL1        0.1031
     13 C         139.8456  143.3291  163.0834 C.3     1  UNL1        0.0255
     14 C         139.2625  144.5097  162.3649 C.3     1  UNL1        0.0191
     15 C         139.9838  145.8249  162.3747 C.3     1  UNL1        0.0687
     16 N         141.2882  145.9594  163.1031 N.3     1  UNL1       -0.2959
     17 C         141.8713  144.7788  163.8216 C.3     1  UNL1        0.0914
     18 H         141.1625  146.6948  163.7987 H       1  UNL1        0.1233
     19 C         140.1061  142.8089  169.5800 C.2     1  UNL1        0.2606
     20 N         139.3690  142.0132  170.6161 N.am    1  UNL1       -0.3241
     21 O         140.1066  144.3074  169.6454 O.2     1  UNL1       -0.2687
     22 H         139.3687  141.0296  170.5732 H       1  UNL1        0.1453
     23 H         138.8856  142.4745  171.3391 H       1  UNL1        0.1453
     24 C         143.4209  141.0509  161.0412 C.1     1  UNL1       -0.0820
     25 C         143.0028  141.1308  162.4795 C.1     1  UNL1       -0.0459
     26 C         143.5432  139.5004  159.5986 C.3     1  UNL1        0.0181
     27 C         143.8390  140.9709  159.6029 C.3     1  UNL1        0.1088
     28 C         144.1348  142.4415  159.6071 C.3     1  UNL1        0.1565
     29 O         144.5529  142.3615  158.1688 O.3     1  UNL1       -0.3516
     30 C         144.2571  140.8910  158.1645 C.3     1  UNL1        0.1565
@<TRIPOS>BOND
     1    26    27    1
     2    27    24    1
     3    24    25    3
     4    25     1    1
     5     1     2   ar
     6     2     3    1
     7     2     4   ar
     8     4     5   ar
     9     5     6    1
    10     5     7   ar
    11     7     8   ar
    12     8    19    1
    13    19    20   am
    14    19    21    2
    15     8     9   ar
    16     9    10   ar
    17    10    11   ar
    18    12    11    1
    19    12    13    1
    20    13    14    1
    21    14    15    1
    22    15    16    1
    23    16    17    1
    24    27    28    1
    25    28    29    1
    26    29    30    1
    27    30    27    1
    28    11     1   ar
    29    17    12    1
    30    10     4   ar
    31    20    22    1
    32    20    23    1
    33    16    18    1
@<TRIPOS>MOLECULE
*****
 30 33 0 0 0
SMALL
GASTEIGER

@<TRIPOS>ATOM
      1 C         140.7894  139.4634  164.0000 C.ar    1  UNL1        0.1143
      2 C         139.5823  138.9900  164.7541 C.ar    1  UNL1        0.0850
      3 CL        138.4549  138.1757  164.1921 Cl      1  UNL1       -0.0799
      4 C         139.7005  139.4739  166.1690 C.ar    1  UNL1        0.0574
      5 C         138.8078  139.3110  167.3634 C.ar    1  UNL1        0.0631
      6 CL        137.5276  138.5385  167.2431 Cl      1  UNL1       -0.0821
      7 C         139.1953  139.9205  168.6780 C.ar    1  UNL1        0.0353
      8 C         140.4754  140.6930  168.7983 C.ar    1  UNL1        0.1366
      9 N         141.3681  140.8559  167.6039 N.ar    1  UNL1       -0.2236
     10 C         140.9806  140.2464  166.2893 C.ar    1  UNL1        0.1460
     11 N         141.6536  140.2399  164.9488 N.ar    1  UNL1       -0.3061
     12 C         142.9613  140.8949  164.6155 C.3     1  UNL1        0.1031
     13 C         144.1787  140.0551  164.3658 C.3     1  UNL1        0.0255
     14 C         145.4863  140.7101  164.0325 C.3     1  UNL1        0.0191
     15 C         145.5765  142.2051  163.9491 C.3     1  UNL1        0.0687
     16 N         144.3591  143.0450  164.1989 N.3     1  UNL1       -0.2959
     17 C         143.0515  142.3900  164.5321 C.3     1  UNL1        0.0914
     18 H         144.2050  143.5981  163.3559 H       1  UNL1        0.1233
     19 C         140.8629  141.3025  170.1130 C.2     1  UNL1        0.2606
     20 N         140.5739  140.5737  171.3918 N.am    1  UNL1       -0.3241
     21 O         141.5393  142.6408  170.1489 O.2     1  UNL1       -0.2687
     22 H         140.1299  139.6953  171.3682 H       1  UNL1        0.1453
     23 H         140.8281  140.9738  172.2546 H       1  UNL1        0.1453
     24 C         141.3728  138.9478  161.1028 C.1     1  UNL1       -0.0820
     25 C         141.0811  139.2056  162.5514 C.1     1  UNL1       -0.0459
     26 C         140.1936  138.6022  159.3736 C.3     1  UNL1        0.0181
     27 C         141.6645  138.6900  159.6542 C.3     1  UNL1        0.1088
     28 C         143.1354  138.7777  159.9347 C.3     1  UNL1        0.1565
     29 O         143.4271  138.5199  158.4861 O.3     1  UNL1       -0.3516
     30 C         141.9562  138.4321  158.2056 C.3     1  UNL1        0.1565
@<TRIPOS>BOND
     1    26    27    1
     2    27    24    1
     3    24    25    3
     4    25     1    1
     5     1     2   ar
     6     2     3    1
     7     2     4   ar
     8     4     5   ar
     9     5     6    1
    10     5     7   ar
    11     7     8   ar
    12     8    19    1
    13    19    20   am
    14    19    21    2
    15     8     9   ar
    16     9    10   ar
    17    10    11   ar
    18    12    11    1
    19    12    13    1
    20    13    14    1
    21    14    15    1
    22    15    16    1
    23    16    17    1
    24    27    28    1
    25    28    29    1
    26    29    30    1
    27    30    27    1
    28    11     1   ar
    29    17    12    1
    30    10     4   ar
    31    20    22    1
    32    20    23    1
    33    16    18    1
@<TRIPOS>MOLECULE
*****
 30 33 0 0 0
SMALL
GASTEIGER

@<TRIPOS>ATOM
      1 C         140.5457  142.6788  164.6162 C.ar    1  UNL1        0.1143
      2 C         140.7594  143.8109  163.6557 C.ar    1  UNL1        0.0850
      3 CL        141.4124  145.1239  163.9717 Cl      1  UNL1       -0.0799
      4 C         140.2054  143.3998  162.3238 C.ar    1  UNL1        0.0574
      5 C         140.1354  144.1086  161.0038 C.ar    1  UNL1        0.0631
      6 CL        140.6915  145.4949  160.8665 Cl      1  UNL1       -0.0821
      7 C         139.5093  143.4311  159.8210 C.ar    1  UNL1        0.0353
      8 C         138.9533  142.0447  159.9583 C.ar    1  UNL1        0.1366
      9 N         139.0232  141.3359  161.2784 N.ar    1  UNL1       -0.2236
     10 C         139.6493  142.0134  162.4611 C.ar    1  UNL1        0.1460
     11 N         139.8596  141.5679  163.8779 N.ar    1  UNL1       -0.3061
     12 C         139.4549  140.2438  164.4550 C.3     1  UNL1        0.1031
     13 C         138.4298  140.1839  165.5483 C.3     1  UNL1        0.0255
     14 C         138.0251  138.8599  166.1254 C.3     1  UNL1        0.0191
     15 C         138.6456  137.5956  165.6092 C.3     1  UNL1        0.0687
     16 N         139.6708  137.6553  164.5158 N.3     1  UNL1       -0.2959
     17 C         140.0755  138.9794  163.9387 C.3     1  UNL1        0.0914
     18 H         139.3104  137.0952  163.7433 H       1  UNL1        0.1233
     19 C         138.3272  141.3672  158.7754 C.2     1  UNL1        0.2606
     20 N         137.7178  140.0050  158.9271 N.am    1  UNL1       -0.3241
     21 O         138.3105  142.0520  157.4410 O.2     1  UNL1       -0.2687
     22 H         137.7288  139.5556  159.8029 H       1  UNL1        0.1453
     23 H         137.3069  139.5604  158.1507 H       1  UNL1        0.1453
     24 C         141.3494  142.6426  167.5063 C.1     1  UNL1       -0.0820
     25 C         140.9476  142.6607  166.0613 C.1     1  UNL1       -0.0459
     26 C         143.1118  142.1236  168.5668 C.3     1  UNL1        0.0181
     27 C         141.7513  142.6245  168.9514 C.3     1  UNL1        0.1088
     28 C         140.3908  143.1255  169.3360 C.3     1  UNL1        0.1565
     29 O         140.7926  143.1075  170.7811 O.3     1  UNL1       -0.3516
     30 C         142.1532  142.6065  170.3964 C.3     1  UNL1        0.1565
@<TRIPOS>BOND
     1    26    27    1
     2    27    24    1
     3    24    25    3
     4    25     1    1
     5     1     2   ar
     6     2     3    1
     7     2     4   ar
     8     4     5   ar
     9     5     6    1
    10     5     7   ar
    11     7     8   ar
    12     8    19    1
    13    19    20   am
    14    19    21    2
    15     8     9   ar
    16     9    10   ar
    17    10    11   ar
    18    12    11    1
    19    12    13    1
    20    13    14    1
    21    14    15    1
    22    15    16    1
    23    16    17    1
    24    27    28    1
    25    28    29    1
    26    29    30    1
    27    30    27    1
    28    11     1   ar
    29    17    12    1
    30    10     4   ar
    31    20    22    1
    32    20    23    1
    33    16    18    1
@<TRIPOS>MOLECULE
*****
 30 33 0 0 0
SMALL
GASTEIGER

@<TRIPOS>ATOM
      1 C         140.9488  142.2170  164.5088 C.ar    1  UNL1        0.1143
      2 C         140.4908  142.9179  165.7534 C.ar    1  UNL1        0.0850
      3 CL        139.6426  144.1539  165.8078 Cl      1  UNL1       -0.0799
      4 C         141.0297  142.1658  166.9340 C.ar    1  UNL1        0.0574
      5 C         140.9023  142.3919  168.4114 C.ar    1  UNL1        0.0631
      6 CL        140.1112  143.5577  168.9263 Cl      1  UNL1       -0.0821
      7 C         141.5661  141.4522  169.3738 C.ar    1  UNL1        0.0353
      8 C         142.3572  140.2865  168.8590 C.ar    1  UNL1        0.1366
      9 N         142.4846  140.0604  167.3816 N.ar    1  UNL1       -0.2236
     10 C         141.8209  141.0001  166.4191 C.ar    1  UNL1        0.1460
     11 N         141.7708  141.0317  164.9203 N.ar    1  UNL1       -0.3061
     12 C         142.4276  140.0503  163.9953 C.3     1  UNL1        0.1031
     13 C         141.6132  138.9710  163.3459 C.3     1  UNL1        0.0255
     14 C         142.2700  137.9896  162.4210 C.3     1  UNL1        0.0191
     15 C         143.7412  138.0875  162.1454 C.3     1  UNL1        0.0687
     16 N         144.5556  139.1669  162.7948 N.3     1  UNL1       -0.2959
     17 C         143.8989  140.1483  163.7198 C.3     1  UNL1        0.0914
     18 H         144.9789  139.7096  162.0420 H       1  UNL1        0.1233
     19 C         143.0210  139.3468  169.8215 C.2     1  UNL1        0.2606
     20 N         143.4056  139.8236  171.1907 N.am    1  UNL1       -0.3241
     21 O         143.3001  137.9302  169.4148 O.2     1  UNL1       -0.2687
     22 H         143.2224  140.7534  171.4576 H       1  UNL1        0.1453
     23 H         143.8412  139.2069  171.8224 H       1  UNL1        0.1453
     24 C         140.3294  143.0410  161.6915 C.1     1  UNL1       -0.0820
     25 C         140.6391  142.6290  163.1002 C.1     1  UNL1       -0.0459
     26 C         141.2859  144.2561  160.2394 C.3     1  UNL1        0.0181
     27 C         140.0198  143.4530  160.2828 C.3     1  UNL1        0.1088
     28 C         138.7536  142.6500  160.3263 C.3     1  UNL1        0.1565
     29 O         138.4439  143.0620  158.9176 O.3     1  UNL1       -0.3516
     30 C         139.7101  143.8651  158.8742 C.3     1  UNL1        0.1565
@<TRIPOS>BOND
     1    26    27    1
     2    27    24    1
     3    24    25    3
     4    25     1    1
     5     1     2   ar
     6     2     3    1
     7     2     4   ar
     8     4     5   ar
     9     5     6    1
    10     5     7   ar
    11     7     8   ar
    12     8    19    1
    13    19    20   am
    14    19    21    2
    15     8     9   ar
    16     9    10   ar
    17    10    11   ar
    18    12    11    1
    19    12    13    1
    20    13    14    1
    21    14    15    1
    22    15    16    1
    23    16    17    1
    24    27    28    1
    25    28    29    1
    26    29    30    1
    27    30    27    1
    28    11     1   ar
    29    17    12    1
    30    10     4   ar
    31    20    22    1
    32    20    23    1
    33    16    18    1
@<TRIPOS>MOLECULE
*****
 30 33 0 0 0
SMALL
GASTEIGER

@<TRIPOS>ATOM
      1 C         142.6511  143.3128  159.7910 C.ar    1  UNL1        0.1143
      2 C         143.1381  143.4181  158.3762 C.ar    1  UNL1        0.0850
      3 CL        144.3285  142.7114  157.7986 Cl      1  UNL1       -0.0799
      4 C         142.2258  144.3541  157.6403 C.ar    1  UNL1        0.0574
      5 C         142.2162  144.8367  156.2201 C.ar    1  UNL1        0.0631
      6 CL        143.2671  144.3635  155.2601 Cl      1  UNL1       -0.0821
      7 C         141.1557  145.7924  155.7599 C.ar    1  UNL1        0.0353
      8 C         140.1048  146.2656  156.7199 C.ar    1  UNL1        0.1366
      9 N         140.1144  145.7831  158.1401 N.ar    1  UNL1       -0.2236
     10 C         141.1749  144.8273  158.6003 C.ar    1  UNL1        0.1460
     11 N         141.4377  144.1837  159.9295 N.ar    1  UNL1       -0.3061
     12 C         140.6291  144.3772  161.1780 C.3     1  UNL1        0.1031
     13 C         139.3508  143.6162  161.3691 C.3     1  UNL1        0.0255
     14 C         138.5422  143.8096  162.6176 C.3     1  UNL1        0.0191
     15 C         139.0120  144.7641  163.6751 C.3     1  UNL1        0.0687
     16 N         140.2904  145.5252  163.4840 N.3     1  UNL1       -0.2959
     17 C         141.0990  145.3317  162.2355 C.3     1  UNL1        0.0914
     18 H         140.8967  145.2838  164.2679 H       1  UNL1        0.1233
     19 C         139.0442  147.2214  156.2597 C.2     1  UNL1        0.2606
     20 N         138.7389  148.4483  157.0668 N.am    1  UNL1       -0.3241
     21 O         138.2891  146.9503  154.9923 O.2     1  UNL1       -0.2687
     22 H         139.2345  148.6262  157.8986 H       1  UNL1        0.1453
     23 H         138.0428  149.0756  156.7647 H       1  UNL1        0.1453
     24 C         143.8867  141.6519  161.9623 C.1     1  UNL1       -0.0820
     25 C         143.2689  142.4823  160.8766 C.1     1  UNL1       -0.0459
     26 C         145.5994  141.8354  163.2005 C.3     1  UNL1        0.0181
     27 C         144.5046  140.8215  163.0480 C.3     1  UNL1        0.1088
     28 C         143.4098  139.8075  162.8954 C.3     1  UNL1        0.1565
     29 O         144.0276  138.9771  163.9810 O.3     1  UNL1       -0.3516
     30 C         145.1224  139.9910  164.1336 C.3     1  UNL1        0.1565
@<TRIPOS>BOND
     1    26    27    1
     2    27    24    1
     3    24    25    3
     4    25     1    1
     5     1     2   ar
     6     2     3    1
     7     2     4   ar
     8     4     5   ar
     9     5     6    1
    10     5     7   ar
    11     7     8   ar
    12     8    19    1
    13    19    20   am
    14    19    21    2
    15     8     9   ar
    16     9    10   ar
    17    10    11   ar
    18    12    11    1
    19    12    13    1
    20    13    14    1
    21    14    15    1
    22    15    16    1
    23    16    17    1
    24    27    28    1
    25    28    29    1
    26    29    30    1
    27    30    27    1
    28    11     1   ar
    29    17    12    1
    30    10     4   ar
    31    20    22    1
    32    20    23    1
    33    16    18    1
@<TRIPOS>MOLECULE
*****
 30 33 0 0 0
SMALL
GASTEIGER

@<TRIPOS>ATOM
      1 C         141.4877  142.0029  166.6500 C.ar    1  UNL1        0.1143
      2 C         141.1588  142.1517  168.1059 C.ar    1  UNL1        0.0850
      3 CL        140.3880  143.2800  168.7248 Cl      1  UNL1       -0.0799
      4 C         141.7359  140.9743  168.8343 C.ar    1  UNL1        0.0574
      5 C         141.7257  140.5872  170.2835 C.ar    1  UNL1        0.0631
      6 CL        141.0401  141.4638  171.2892 Cl      1  UNL1       -0.0821
      7 C         142.4011  139.3234  170.7268 C.ar    1  UNL1        0.0353
      8 C         143.0868  138.4468  169.7211 C.ar    1  UNL1        0.1366
      9 N         143.0970  138.8339  168.2720 N.ar    1  UNL1       -0.2236
     10 C         142.4216  140.0977  167.8286 C.ar    1  UNL1        0.1460
     11 N         142.2681  140.7334  166.4787 N.ar    1  UNL1       -0.3061
     12 C         142.8015  140.1942  165.1845 C.3     1  UNL1        0.1031
     13 C         144.1785  140.5721  164.7253 C.3     1  UNL1        0.0255
     14 C         144.7119  140.0330  163.4311 C.3     1  UNL1        0.0191
     15 C         143.8683  139.1158  162.5962 C.3     1  UNL1        0.0687
     16 N         142.4912  138.7378  163.0554 N.3     1  UNL1       -0.2959
     17 C         141.9578  139.2770  164.3496 C.3     1  UNL1        0.0914
     18 H         142.4749  137.7208  163.1312 H       1  UNL1        0.1233
     19 C         143.7622  137.1830  170.1646 C.2     1  UNL1        0.2606
     20 N         143.4726  136.6143  171.5220 N.am    1  UNL1       -0.3241
     21 O         144.7273  136.4879  169.2505 O.2     1  UNL1       -0.2687
     22 H         142.8392  137.0705  172.1219 H       1  UNL1        0.1453
     23 H         143.9159  135.7848  171.8131 H       1  UNL1        0.1453
     24 C         140.7196  143.9092  164.4647 C.1     1  UNL1       -0.0820
     25 C         141.1036  142.9560  165.5574 C.1     1  UNL1       -0.0459
     26 C         141.7254  145.4266  163.3756 C.3     1  UNL1        0.0181
     27 C         140.3355  144.8624  163.3720 C.3     1  UNL1        0.1088
     28 C         138.9456  144.2983  163.3685 C.3     1  UNL1        0.1565
     29 O         138.5615  145.2515  162.2758 O.3     1  UNL1       -0.3516
     30 C         139.9514  145.8156  162.2794 C.3     1  UNL1        0.1565
@<TRIPOS>BOND
     1    26    27    1
     2    27    24    1
     3    24    25    3
     4    25     1    1
     5     1     2   ar
     6     2     3    1
     7     2     4   ar
     8     4     5   ar
     9     5     6    1
    10     5     7   ar
    11     7     8   ar
    12     8    19    1
    13    19    20   am
    14    19    21    2
    15     8     9   ar
    16     9    10   ar
    17    10    11   ar
    18    12    11    1
    19    12    13    1
    20    13    14    1
    21    14    15    1
    22    15    16    1
    23    16    17    1
    24    27    28    1
    25    28    29    1
    26    29    30    1
    27    30    27    1
    28    11     1   ar
    29    17    12    1
    30    10     4   ar
    31    20    22    1
    32    20    23    1
    33    16    18    1
