@<TRIPOS>MOLECULE
*****
 30 33 0 0 0
SMALL
GASTEIGER

@<TRIPOS>ATOM
      1 C         138.2466  139.7441  159.9070 C.3     1  UNL1        0.1326
      2 C         139.5411  138.9884  159.8507 C.3     1  UNL1        0.0473
      3 C         140.0560  138.8458  161.2523 C.3     1  UNL1        0.0643
      4 N         139.0797  139.5134  162.1749 N.3     1  UNL1       -0.2727
      5 C         137.9615  140.0686  161.3435 C.3     1  UNL1        0.1020
      6 C         139.2005  139.6091  163.6670 C.3     1  UNL1        0.0609
      7 C         138.7033  138.4898  164.5330 C.3     1  UNL1        0.0375
      8 C         138.8241  138.5853  166.0250 C.3     1  UNL1        0.0950
      9 N         139.4421  139.8004  166.6511 N.pl3   1  UNL1       -0.2785
     10 C         139.9393  140.9196  165.7852 C.3     1  UNL1        0.0950
     11 C         139.8185  140.8240  164.2930 C.3     1  UNL1        0.0375
     12 C         139.5629  139.8959  168.1432 C.ar    1  UNL1        0.2163
     13 N         140.8106  140.2264  168.9073 N.ar    1  UNL1       -0.1804
     14 C         140.4761  140.2125  170.3695 C.ar    1  UNL1        0.2331
     15 N         141.4288  140.4891  171.4946 N.pl3   1  UNL1       -0.3262
     16 N         139.0215  139.8736  170.5090 N.ar    1  UNL1       -0.1354
     17 N         138.4572  139.6779  169.1331 N.ar    1  UNL1       -0.2450
     18 H         142.3699  140.7038  171.3012 H       1  UNL1        0.1452
     19 H         141.1129  140.4559  172.4265 H       1  UNL1        0.1452
     20 H         137.5247  139.4469  168.9175 H       1  UNL1        0.1919
     21 C         137.9447  140.9686  157.6356 C.3     1  UNL1        0.1741
     22 O         137.3880  140.1109  158.7331 O.3     1  UNL1       -0.3521
     23 C         141.3245  138.1566  161.6597 C.3     1  UNL1        0.0424
     24 C         142.4715  138.9564  162.2026 C.ar    1  UNL1       -0.0208
     25 C         143.1330  139.9955  161.3466 C.ar    1  UNL1       -0.0034
     26 C         144.2800  140.7953  161.8895 C.ar    1  UNL1        0.0111
     27 C         144.7656  140.5558  163.2884 C.ar    1  UNL1        0.0577
     28 CL        145.9126  141.3556  163.8313 Cl      1  UNL1       -0.0822
     29 C         144.1041  139.5168  164.1444 C.ar    1  UNL1        0.0111
     30 C         142.9571  138.7170  163.6015 C.ar    1  UNL1       -0.0034
@<TRIPOS>BOND
     1    21    22    1
     2     1    22    1
     3     1     2    1
     4     2     3    1
     5     3    23    1
     6    23    24    1
     7    24    25   ar
     8    25    26   ar
     9    26    27   ar
    10    27    28    1
    11    27    29   ar
    12    29    30   ar
    13     3     4    1
    14     4     6    1
    15     6     7    1
    16     7     8    1
    17     8     9    1
    18     9    12    1
    19    12    13   ar
    20    13    14   ar
    21    14    15    1
    22    14    16   ar
    23    16    17   ar
    24     9    10    1
    25    10    11    1
    26     4     5    1
    27     5     1    1
    28    30    24   ar
    29    11     6    1
    30    17    12   ar
    31    15    18    1
    32    15    19    1
    33    17    20    1
@<TRIPOS>MOLECULE
*****
 30 33 0 0 0
SMALL
GASTEIGER

@<TRIPOS>ATOM
      1 C         141.2155  140.6004  168.7425 C.3     1  UNL1        0.1326
      2 C         139.9621  139.8928  168.3205 C.3     1  UNL1        0.0473
      3 C         139.6006  140.3707  166.9454 C.3     1  UNL1        0.0643
      4 N         140.6307  141.3736  166.5175 N.3     1  UNL1       -0.2727
      5 C         141.6288  141.5156  167.6282 C.3     1  UNL1        0.1020
      6 C         140.6579  142.1059  165.2087 C.3     1  UNL1        0.0609
      7 C         139.8445  143.3536  165.0304 C.3     1  UNL1        0.0375
      8 C         139.8717  144.0859  163.7217 C.3     1  UNL1        0.0950
      9 N         140.7123  143.5706  162.5912 N.pl3   1  UNL1       -0.2785
     10 C         141.5257  142.3230  162.7695 C.3     1  UNL1        0.0950
     11 C         141.4985  141.5906  164.0783 C.3     1  UNL1        0.0375
     12 C         140.7395  144.3030  161.2824 C.ar    1  UNL1        0.2163
     13 N         141.9503  144.5388  160.4291 N.ar    1  UNL1       -0.1804
     14 C         141.5199  145.3097  159.2164 C.ar    1  UNL1        0.2331
     15 N         142.4100  145.7608  158.0965 N.pl3   1  UNL1       -0.3262
     16 N         140.0429  145.5503  159.3204 N.ar    1  UNL1       -0.1354
     17 N         139.5606  144.9281  160.5972 N.ar    1  UNL1       -0.2450
     18 H         143.3722  145.5536  158.1185 H       1  UNL1        0.1452
     19 H         142.0320  146.2642  157.3395 H       1  UNL1        0.1452
     20 H         138.6332  144.9297  160.9275 H       1  UNL1        0.1919
     21 C         141.7875  141.4565  171.1279 C.3     1  UNL1        0.1741
     22 O         141.9303  140.4238  170.0494 O.3     1  UNL1       -0.3521
     23 C         138.4169  139.9240  166.1397 C.3     1  UNL1        0.0424
     24 C         138.6070  139.4389  164.7331 C.ar    1  UNL1       -0.0208
     25 C         139.3657  138.1713  164.4730 C.ar    1  UNL1       -0.0034
     26 C         139.5558  137.6862  163.0664 C.ar    1  UNL1        0.0111
     27 C         138.9872  138.4686  161.9199 C.ar    1  UNL1        0.0577
     28 CL        139.1773  137.9835  160.5133 Cl      1  UNL1       -0.0822
     29 C         138.2285  139.7362  162.1800 C.ar    1  UNL1        0.0111
     30 C         138.0384  140.2213  163.5866 C.ar    1  UNL1       -0.0034
@<TRIPOS>BOND
     1    21    22    1
     2     1    22    1
     3     1     2    1
     4     2     3    1
     5     3    23    1
     6    23    24    1
     7    24    25   ar
     8    25    26   ar
     9    26    27   ar
    10    27    28    1
    11    27    29   ar
    12    29    30   ar
    13     3     4    1
    14     4     6    1
    15     6     7    1
    16     7     8    1
    17     8     9    1
    18     9    12    1
    19    12    13   ar
    20    13    14   ar
    21    14    15    1
    22    14    16   ar
    23    16    17   ar
    24     9    10    1
    25    10    11    1
    26     4     5    1
    27     5     1    1
    28    30    24   ar
    29    11     6    1
    30    17    12   ar
    31    15    18    1
    32    15    19    1
    33    17    20    1
@<TRIPOS>MOLECULE
*****
 30 33 0 0 0
SMALL
GASTEIGER

@<TRIPOS>ATOM
      1 C         142.5991  140.3861  168.8508 C.3     1  UNL1        0.1326
      2 C         142.7500  139.1286  168.0471 C.3     1  UNL1        0.0473
      3 C         142.5224  139.4704  166.6044 C.3     1  UNL1        0.0643
      4 N         142.2308  140.9391  166.5164 N.3     1  UNL1       -0.2727
      5 C         142.2781  141.5051  167.9047 C.3     1  UNL1        0.1020
      6 C         141.9424  141.7071  165.2606 C.3     1  UNL1        0.0609
      7 C         140.5234  141.9594  164.8450 C.3     1  UNL1        0.0375
      8 C         140.2349  142.7273  163.5892 C.3     1  UNL1        0.0950
      9 N         141.3656  143.2430  162.7490 N.pl3   1  UNL1       -0.2785
     10 C         142.7845  142.9907  163.1646 C.3     1  UNL1        0.0950
     11 C         143.0730  142.2227  164.4205 C.3     1  UNL1        0.0375
     12 C         141.0771  144.0110  161.4932 C.ar    1  UNL1        0.2163
     13 N         142.0933  144.4871  160.4979 N.ar    1  UNL1       -0.1804
     14 C         141.3661  145.2080  159.4017 C.ar    1  UNL1        0.2331
     15 N         141.9942  145.8473  158.1989 N.pl3   1  UNL1       -0.3262
     16 N         139.9005  145.1774  159.7197 N.ar    1  UNL1       -0.1354
     17 N         139.7219  144.4376  161.0122 N.ar    1  UNL1       -0.2450
     18 H         142.9707  145.8145  158.0775 H       1  UNL1        0.1452
     19 H         141.4300  146.2995  157.5308 H       1  UNL1        0.1452
     20 H         138.8655  144.2627  161.4654 H       1  UNL1        0.1919
     21 C         141.8397  141.4195  171.1103 C.3     1  UNL1        0.1741
     22 O         142.7436  140.5040  170.3391 O.3     1  UNL1       -0.3521
     23 C         142.5769  138.5117  165.4521 C.3     1  UNL1        0.0424
     24 C         141.3960  138.3697  164.5381 C.ar    1  UNL1       -0.0208
     25 C         141.5863  138.4330  163.0515 C.ar    1  UNL1       -0.0034
     26 C         140.4054  138.2910  162.1376 C.ar    1  UNL1        0.0111
     27 C         139.0342  138.0857  162.7102 C.ar    1  UNL1        0.0577
     28 CL        137.8533  137.9438  161.7963 Cl      1  UNL1       -0.0822
     29 C         138.8440  138.0225  164.1967 C.ar    1  UNL1        0.0111
     30 C         140.0249  138.1645  165.1107 C.ar    1  UNL1       -0.0034
@<TRIPOS>BOND
     1    21    22    1
     2     1    22    1
     3     1     2    1
     4     2     3    1
     5     3    23    1
     6    23    24    1
     7    24    25   ar
     8    25    26   ar
     9    26    27   ar
    10    27    28    1
    11    27    29   ar
    12    29    30   ar
    13     3     4    1
    14     4     6    1
    15     6     7    1
    16     7     8    1
    17     8     9    1
    18     9    12    1
    19    12    13   ar
    20    13    14   ar
    21    14    15    1
    22    14    16   ar
    23    16    17   ar
    24     9    10    1
    25    10    11    1
    26     4     5    1
    27     5     1    1
    28    30    24   ar
    29    11     6    1
    30    17    12   ar
    31    15    18    1
    32    15    19    1
    33    17    20    1
@<TRIPOS>MOLECULE
*****
 30 33 0 0 0
SMALL
GASTEIGER

@<TRIPOS>ATOM
      1 C         138.2199  139.2713  166.8690 C.3     1  UNL1        0.1326
      2 C         139.3872  139.8447  167.6164 C.3     1  UNL1        0.0473
      3 C         140.0770  140.8264  166.7163 C.3     1  UNL1        0.0643
      4 N         139.3361  140.8598  165.4125 N.3     1  UNL1       -0.2727
      5 C         138.1883  139.8987  165.5068 C.3     1  UNL1        0.1020
      6 C         139.6821  141.7058  164.2231 C.3     1  UNL1        0.0609
      7 C         139.3918  143.1773  164.2394 C.3     1  UNL1        0.0375
      8 C         139.7378  144.0233  163.0502 C.3     1  UNL1        0.0950
      9 N         140.3743  143.3977  161.8444 N.pl3   1  UNL1       -0.2785
     10 C         140.6646  141.9262  161.8281 C.3     1  UNL1        0.0950
     11 C         140.3185  141.0802  163.0175 C.3     1  UNL1        0.0375
     12 C         140.7203  144.2438  160.6550 C.ar    1  UNL1        0.2163
     13 N         139.7858  144.6331  159.5483 N.ar    1  UNL1       -0.1804
     14 C         140.5494  145.4790  158.5728 C.ar    1  UNL1        0.2331
     15 N         140.0027  146.0851  157.3144 N.pl3   1  UNL1       -0.3262
     16 N         141.9560  145.6123  159.0769 N.ar    1  UNL1       -0.1354
     17 N         142.0615  144.8489  160.3637 N.ar    1  UNL1       -0.2450
     18 H         139.0609  145.9400  157.0670 H       1  UNL1        0.1452
     19 H         140.5856  146.6279  156.7358 H       1  UNL1        0.1452
     20 H         142.8693  144.7605  160.9196 H       1  UNL1        0.1919
     21 C         137.3080  136.8386  166.8865 C.3     1  UNL1        0.1741
     22 O         137.2539  138.2498  167.3918 O.3     1  UNL1       -0.3521
     23 C         141.2940  141.6332  167.0597 C.3     1  UNL1        0.0424
     24 C         142.4741  141.6416  166.1337 C.ar    1  UNL1       -0.0208
     25 C         143.0148  140.3498  165.5962 C.ar    1  UNL1       -0.0034
     26 C         144.1949  140.3582  164.6702 C.ar    1  UNL1        0.0111
     27 C         144.8342  141.6584  164.2818 C.ar    1  UNL1        0.0577
     28 CL        146.0143  141.6668  163.3559 Cl      1  UNL1       -0.0822
     29 C         144.2935  142.9501  164.8194 C.ar    1  UNL1        0.0111
     30 C         143.1134  142.9417  165.7453 C.ar    1  UNL1       -0.0034
@<TRIPOS>BOND
     1    21    22    1
     2     1    22    1
     3     1     2    1
     4     2     3    1
     5     3    23    1
     6    23    24    1
     7    24    25   ar
     8    25    26   ar
     9    26    27   ar
    10    27    28    1
    11    27    29   ar
    12    29    30   ar
    13     3     4    1
    14     4     6    1
    15     6     7    1
    16     7     8    1
    17     8     9    1
    18     9    12    1
    19    12    13   ar
    20    13    14   ar
    21    14    15    1
    22    14    16   ar
    23    16    17   ar
    24     9    10    1
    25    10    11    1
    26     4     5    1
    27     5     1    1
    28    30    24   ar
    29    11     6    1
    30    17    12   ar
    31    15    18    1
    32    15    19    1
    33    17    20    1
@<TRIPOS>MOLECULE
*****
 30 33 0 0 0
SMALL
GASTEIGER

@<TRIPOS>ATOM
      1 C         141.1232  144.7533  160.2863 C.3     1  UNL1        0.1326
      2 C         139.9074  143.8938  160.1040 C.3     1  UNL1        0.0473
      3 C         139.5094  143.3626  161.4492 C.3     1  UNL1        0.0643
      4 N         140.4791  143.8937  162.4628 N.3     1  UNL1       -0.2727
      5 C         141.4765  144.7532  161.7442 C.3     1  UNL1        0.1020
      6 C         140.4557  143.6144  163.9364 C.3     1  UNL1        0.0609
      7 C         141.4143  142.6236  164.5273 C.3     1  UNL1        0.0375
      8 C         141.3909  142.3443  166.0008 C.3     1  UNL1        0.0950
      9 N         140.4087  143.0558  166.8835 N.pl3   1  UNL1       -0.2785
     10 C         139.4500  144.0466  166.2926 C.3     1  UNL1        0.0950
     11 C         139.4735  144.3259  164.8190 C.3     1  UNL1        0.0375
     12 C         140.3852  142.7765  168.3571 C.ar    1  UNL1        0.2163
     13 N         140.5217  141.4288  169.0012 N.ar    1  UNL1       -0.1804
     14 C         140.4420  141.6150  170.4875 C.ar    1  UNL1        0.2331
     15 N         140.5322  140.5291  171.5183 N.pl3   1  UNL1       -0.3262
     16 N         140.2563  143.0781  170.7619 N.ar    1  UNL1       -0.1354
     17 N         140.2213  143.7958  169.4453 N.ar    1  UNL1       -0.2450
     18 H         140.6550  139.5934  171.2381 H       1  UNL1        0.1452
     19 H         140.4686  140.7522  172.4751 H       1  UNL1        0.1452
     20 H         140.1101  144.7657  169.3177 H       1  UNL1        0.1919
     21 C         142.2286  144.7712  157.9352 C.3     1  UNL1        0.1741
     22 O         141.8568  145.4844  159.2013 O.3     1  UNL1       -0.3521
     23 C         138.3459  142.4588  161.7311 C.3     1  UNL1        0.0424
     24 C         138.5394  141.2233  162.5593 C.ar    1  UNL1       -0.0208
     25 C         139.3610  140.0859  162.0288 C.ar    1  UNL1       -0.0034
     26 C         139.5545  138.8503  162.8570 C.ar    1  UNL1        0.0111
     27 C         138.9263  138.7521  164.2156 C.ar    1  UNL1        0.0577
     28 CL        139.1198  137.5165  165.0438 Cl      1  UNL1       -0.0822
     29 C         138.1048  139.8894  164.7460 C.ar    1  UNL1        0.0111
     30 C         137.9113  141.1250  163.9179 C.ar    1  UNL1       -0.0034
@<TRIPOS>BOND
     1    21    22    1
     2     1    22    1
     3     1     2    1
     4     2     3    1
     5     3    23    1
     6    23    24    1
     7    24    25   ar
     8    25    26   ar
     9    26    27   ar
    10    27    28    1
    11    27    29   ar
    12    29    30   ar
    13     3     4    1
    14     4     6    1
    15     6     7    1
    16     7     8    1
    17     8     9    1
    18     9    12    1
    19    12    13   ar
    20    13    14   ar
    21    14    15    1
    22    14    16   ar
    23    16    17   ar
    24     9    10    1
    25    10    11    1
    26     4     5    1
    27     5     1    1
    28    30    24   ar
    29    11     6    1
    30    17    12   ar
    31    15    18    1
    32    15    19    1
    33    17    20    1
@<TRIPOS>MOLECULE
*****
 30 33 0 0 0
SMALL
GASTEIGER

@<TRIPOS>ATOM
      1 C         142.5333  138.1556  159.8384 C.3     1  UNL1        0.1326
      2 C         141.1040  138.6056  159.9068 C.3     1  UNL1        0.0473
      3 C         140.8527  139.1429  161.2845 C.3     1  UNL1        0.0643
      4 N         142.1266  139.0249  162.0677 N.3     1  UNL1       -0.2727
      5 C         143.1653  138.4147  161.1739 C.3     1  UNL1        0.1020
      6 C         142.3267  139.4436  163.4941 C.3     1  UNL1        0.0609
      7 C         142.5035  140.8942  163.8322 C.3     1  UNL1        0.0375
      8 C         142.7036  141.3130  165.2585 C.3     1  UNL1        0.0950
      9 N         142.7269  140.2809  166.3469 N.pl3   1  UNL1       -0.2785
     10 C         142.5501  138.8304  166.0088 C.3     1  UNL1        0.0950
     11 C         142.3500  138.4116  164.5824 C.3     1  UNL1        0.0375
     12 C         142.9270  140.6997  167.7733 C.ar    1  UNL1        0.2163
     13 N         143.1336  142.1036  168.2593 N.ar    1  UNL1       -0.1804
     14 C         143.2899  142.0598  169.7505 C.ar    1  UNL1        0.2331
     15 N         143.5165  143.2397  170.6484 N.pl3   1  UNL1       -0.3262
     16 N         143.1799  140.6286  170.1861 N.ar    1  UNL1       -0.1354
     17 N         142.9556  139.7880  168.9641 N.ar    1  UNL1       -0.2450
     18 H         143.5745  144.1452  170.2662 H       1  UNL1        0.1452
     19 H         143.6071  143.1088  171.6199 H       1  UNL1        0.1452
     20 H         142.8464  138.8098  168.9467 H       1  UNL1        0.1919
     21 C         142.5658  137.6363  157.2930 C.3     1  UNL1        0.1741
     22 O         143.2115  137.5523  158.6442 O.3     1  UNL1       -0.3521
     23 C         139.5552  139.7002  161.7903 C.3     1  UNL1        0.0424
     24 C         139.0976  139.3883  163.1844 C.ar    1  UNL1       -0.0208
     25 C         138.7309  140.5019  164.1201 C.ar    1  UNL1       -0.0034
     26 C         138.2733  140.1900  165.5142 C.ar    1  UNL1        0.0111
     27 C         138.1824  138.7646  165.9724 C.ar    1  UNL1        0.0577
     28 CL        137.7248  138.4527  167.3665 Cl      1  UNL1       -0.0822
     29 C         138.5491  137.6511  165.0367 C.ar    1  UNL1        0.0111
     30 C         139.0067  137.9630  163.6427 C.ar    1  UNL1       -0.0034
@<TRIPOS>BOND
     1    21    22    1
     2     1    22    1
     3     1     2    1
     4     2     3    1
     5     3    23    1
     6    23    24    1
     7    24    25   ar
     8    25    26   ar
     9    26    27   ar
    10    27    28    1
    11    27    29   ar
    12    29    30   ar
    13     3     4    1
    14     4     6    1
    15     6     7    1
    16     7     8    1
    17     8     9    1
    18     9    12    1
    19    12    13   ar
    20    13    14   ar
    21    14    15    1
    22    14    16   ar
    23    16    17   ar
    24     9    10    1
    25    10    11    1
    26     4     5    1
    27     5     1    1
    28    30    24   ar
    29    11     6    1
    30    17    12   ar
    31    15    18    1
    32    15    19    1
    33    17    20    1
@<TRIPOS>MOLECULE
*****
 30 33 0 0 0
SMALL
GASTEIGER

@<TRIPOS>ATOM
      1 C         141.1580  138.8594  159.8407 C.3     1  UNL1        0.1326
      2 C         140.0073  139.7983  159.6304 C.3     1  UNL1        0.0473
      3 C         139.4661  140.1771  160.9771 C.3     1  UNL1        0.0643
      4 N         140.2823  139.4722  162.0197 N.3     1  UNL1       -0.2727
      5 C         141.3280  138.6578  161.3174 C.3     1  UNL1        0.1020
      6 C         140.0871  139.5654  163.5040 C.3     1  UNL1        0.0609
      7 C         140.9591  140.4734  164.3196 C.3     1  UNL1        0.0375
      8 C         140.7640  140.5666  165.8039 C.3     1  UNL1        0.0950
      9 N         139.6968  139.7517  166.4727 N.pl3   1  UNL1       -0.2785
     10 C         138.8249  138.8438  165.6571 C.3     1  UNL1        0.0950
     11 C         139.0200  138.7506  164.1727 C.3     1  UNL1        0.0375
     12 C         139.5017  139.8450  167.9570 C.ar    1  UNL1        0.2163
     13 N         140.5107  140.3418  168.9494 N.ar    1  UNL1       -0.1804
     14 C         139.8960  140.2616  170.3153 C.ar    1  UNL1        0.2331
     15 N         140.5547  140.6582  171.6033 N.pl3   1  UNL1       -0.3262
     16 N         138.5069  139.7152  170.1670 N.ar    1  UNL1       -0.1354
     17 N         138.2632  139.4577  168.7096 N.ar    1  UNL1       -0.2450
     18 H         141.4747  141.0085  171.5982 H       1  UNL1        0.1452
     19 H         140.0669  140.5682  172.4537 H       1  UNL1        0.1452
     20 H         137.4357  139.0977  168.3160 H       1  UNL1        0.1919
     21 C         142.8457  139.0921  157.8791 C.3     1  UNL1        0.1741
     22 O         141.9922  138.2320  158.7634 O.3     1  UNL1       -0.3521
     23 C         138.3114  141.0989  161.2358 C.3     1  UNL1        0.0424
     24 C         138.3919  142.1100  162.3409 C.ar    1  UNL1       -0.0208
     25 C         139.4272  143.1944  162.2914 C.ar    1  UNL1       -0.0034
     26 C         139.5076  144.2054  163.3965 C.ar    1  UNL1        0.0111
     27 C         138.5528  144.1322  164.5511 C.ar    1  UNL1        0.0577
     28 CL        138.6332  145.1432  165.6562 Cl      1  UNL1       -0.0822
     29 C         137.5176  143.0478  164.6006 C.ar    1  UNL1        0.0111
     30 C         137.4371  142.0367  163.4955 C.ar    1  UNL1       -0.0034
@<TRIPOS>BOND
     1    21    22    1
     2     1    22    1
     3     1     2    1
     4     2     3    1
     5     3    23    1
     6    23    24    1
     7    24    25   ar
     8    25    26   ar
     9    26    27   ar
    10    27    28    1
    11    27    29   ar
    12    29    30   ar
    13     3     4    1
    14     4     6    1
    15     6     7    1
    16     7     8    1
    17     8     9    1
    18     9    12    1
    19    12    13   ar
    20    13    14   ar
    21    14    15    1
    22    14    16   ar
    23    16    17   ar
    24     9    10    1
    25    10    11    1
    26     4     5    1
    27     5     1    1
    28    30    24   ar
    29    11     6    1
    30    17    12   ar
    31    15    18    1
    32    15    19    1
    33    17    20    1
@<TRIPOS>MOLECULE
*****
 30 33 0 0 0
SMALL
GASTEIGER

@<TRIPOS>ATOM
      1 C         141.5849  144.0416  160.3680 C.3     1  UNL1        0.1326
      2 C         140.1341  143.6904  160.5149 C.3     1  UNL1        0.0473
      3 C         139.9557  142.9998  161.8345 C.3     1  UNL1        0.0643
      4 N         141.2963  142.9243  162.5031 N.3     1  UNL1       -0.2727
      5 C         142.3033  143.5682  161.5968 C.3     1  UNL1        0.1020
      6 C         141.5802  142.3124  163.8429 C.3     1  UNL1        0.0609
      7 C         142.1753  140.9382  163.9289 C.3     1  UNL1        0.0375
      8 C         142.4591  140.3262  165.2685 C.3     1  UNL1        0.0950
      9 N         142.1479  141.0885  166.5224 N.pl3   1  UNL1       -0.2785
     10 C         141.5528  142.4627  166.4365 C.3     1  UNL1        0.0950
     11 C         141.2689  143.0747  165.0967 C.3     1  UNL1        0.0375
     12 C         142.4317  140.4765  167.8622 C.ar    1  UNL1        0.2163
     13 N         142.2452  141.1427  169.1931 N.ar    1  UNL1       -0.1804
     14 C         142.6502  140.1689  170.2597 C.ar    1  UNL1        0.2331
     15 N         142.6231  140.4191  171.7385 N.pl3   1  UNL1       -0.3262
     16 N         143.0870  138.9008  169.5879 N.ar    1  UNL1       -0.1354
     17 N         142.9520  139.0910  168.1062 N.ar    1  UNL1       -0.2450
     18 H         142.3185  141.2888  172.0850 H       1  UNL1        0.1452
     19 H         142.9099  139.7137  172.3624 H       1  UNL1        0.1452
     20 H         143.1670  138.4236  167.4151 H       1  UNL1        0.1919
     21 C         141.8752  144.3115  157.8003 C.3     1  UNL1        0.1741
     22 O         142.2081  144.7432  159.1977 O.3     1  UNL1       -0.3521
     23 C         138.6635  142.4767  162.3882 C.3     1  UNL1        0.0424
     24 C         138.6433  141.1872  163.1543 C.ar    1  UNL1       -0.0208
     25 C         139.0139  139.9037  162.4722 C.ar    1  UNL1       -0.0034
     26 C         138.9936  138.6142  163.2383 C.ar    1  UNL1        0.0111
     27 C         138.6027  138.6083  164.6865 C.ar    1  UNL1        0.0577
     28 CL        138.5824  137.3188  165.4525 Cl      1  UNL1       -0.0822
     29 C         138.2321  139.8918  165.3685 C.ar    1  UNL1        0.0111
     30 C         138.2524  141.1813  164.6025 C.ar    1  UNL1       -0.0034
@<TRIPOS>BOND
     1    21    22    1
     2     1    22    1
     3     1     2    1
     4     2     3    1
     5     3    23    1
     6    23    24    1
     7    24    25   ar
     8    25    26   ar
     9    26    27   ar
    10    27    28    1
    11    27    29   ar
    12    29    30   ar
    13     3     4    1
    14     4     6    1
    15     6     7    1
    16     7     8    1
    17     8     9    1
    18     9    12    1
    19    12    13   ar
    20    13    14   ar
    21    14    15    1
    22    14    16   ar
    23    16    17   ar
    24     9    10    1
    25    10    11    1
    26     4     5    1
    27     5     1    1
    28    30    24   ar
    29    11     6    1
    30    17    12   ar
    31    15    18    1
    32    15    19    1
    33    17    20    1
@<TRIPOS>MOLECULE
*****
 30 33 0 0 0
SMALL
GASTEIGER

@<TRIPOS>ATOM
      1 C         139.8730  138.5265  158.9046 C.3     1  UNL1        0.1326
      2 C         141.2817  138.1220  159.2237 C.3     1  UNL1        0.0473
      3 C         141.4642  138.2110  160.7099 C.3     1  UNL1        0.0643
      4 N         140.1683  138.6705  161.3093 N.3     1  UNL1       -0.2727
      5 C         139.1848  138.8655  160.1936 C.3     1  UNL1        0.1020
      6 C         139.9024  138.8956  162.7683 C.3     1  UNL1        0.0609
      7 C         140.0439  140.2695  163.3533 C.3     1  UNL1        0.0375
      8 C         139.7781  140.4946  164.8122 C.3     1  UNL1        0.0950
      9 N         139.3707  139.3456  165.6863 N.pl3   1  UNL1       -0.2785
     10 C         139.2292  137.9717  165.1014 C.3     1  UNL1        0.0950
     11 C         139.4951  137.7466  163.6423 C.3     1  UNL1        0.0375
     12 C         139.1049  139.5707  167.1454 C.ar    1  UNL1        0.2163
     13 N         139.9051  140.4475  168.0622 N.ar    1  UNL1       -0.1804
     14 C         139.2871  140.3773  169.4272 C.ar    1  UNL1        0.2331
     15 N         139.7669  141.1003  170.6507 N.pl3   1  UNL1       -0.3262
     16 N         138.1047  139.4570  169.3538 N.ar    1  UNL1       -0.1354
     17 N         137.9922  138.9586  167.9435 N.ar    1  UNL1       -0.2450
     18 H         140.5569  141.6855  170.5985 H       1  UNL1        0.1452
     19 H         139.2919  140.9896  171.5059 H       1  UNL1        0.1452
     20 H         137.3081  138.3385  167.6018 H       1  UNL1        0.1919
     21 C         139.6384  137.5631  156.5032 C.3     1  UNL1        0.1741
     22 O         139.2600  138.5822  157.5367 O.3     1  UNL1       -0.3521
     23 C         142.7219  137.8958  161.4641 C.3     1  UNL1        0.0424
     24 C         143.4623  138.9880  162.1774 C.ar    1  UNL1       -0.0208
     25 C         143.8043  138.8374  163.6302 C.ar    1  UNL1       -0.0034
     26 C         144.5448  139.9296  164.3435 C.ar    1  UNL1        0.0111
     27 C         144.9432  141.1725  163.6040 C.ar    1  UNL1        0.0577
     28 CL        145.6837  142.2647  164.3173 Cl      1  UNL1       -0.0822
     29 C         144.6012  141.3230  162.1514 C.ar    1  UNL1        0.0111
     30 C         143.8607  140.2308  161.4381 C.ar    1  UNL1       -0.0034
@<TRIPOS>BOND
     1    21    22    1
     2     1    22    1
     3     1     2    1
     4     2     3    1
     5     3    23    1
     6    23    24    1
     7    24    25   ar
     8    25    26   ar
     9    26    27   ar
    10    27    28    1
    11    27    29   ar
    12    29    30   ar
    13     3     4    1
    14     4     6    1
    15     6     7    1
    16     7     8    1
    17     8     9    1
    18     9    12    1
    19    12    13   ar
    20    13    14   ar
    21    14    15    1
    22    14    16   ar
    23    16    17   ar
    24     9    10    1
    25    10    11    1
    26     4     5    1
    27     5     1    1
    28    30    24   ar
    29    11     6    1
    30    17    12   ar
    31    15    18    1
    32    15    19    1
    33    17    20    1
