@<TRIPOS>MOLECULE
*****
 30 32 0 0 0
SMALL
GASTEIGER

@<TRIPOS>ATOM
      1 C         144.1865  142.9295  160.8608 C.3     1  UNL1        0.1166
      2 N         143.3348  142.7916  162.0877 N.am    1  UNL1       -0.2592
      3 C         141.9167  143.2808  162.0753 C.3     1  UNL1        0.1166
      4 C         143.9010  142.1646  163.3272 C.2     1  UNL1        0.3264
      5 O         145.3189  141.6755  163.3397 O.2     1  UNL1       -0.2506
      6 N         143.0492  142.0268  164.5542 N.am    1  UNL1       -0.1644
      7 N         143.4753  141.4244  165.8602 N.2     1  UNL1       -0.1786
      8 C         142.3112  141.4924  166.8038 C.2     1  UNL1        0.0808
      9 C         141.1657  142.1368  166.0809 C.3     1  UNL1        0.0719
     10 C         141.6217  142.4671  164.6907 C.3     1  UNL1        0.1079
     11 C         142.2955  141.0021  168.2213 C.ar    1  UNL1        0.0448
     12 C         142.5991  139.5641  168.5209 C.ar    1  UNL1        0.0331
     13 C         142.5834  139.0738  169.9384 C.ar    1  UNL1        0.1403
     14 F         142.8870  137.6357  170.2381 F       1  UNL1       -0.2042
     15 C         142.2640  140.0216  171.0563 C.ar    1  UNL1        0.0319
     16 C         141.9604  141.4596  170.7567 C.ar    1  UNL1        0.0320
     17 C         141.9761  141.9499  169.3392 C.ar    1  UNL1        0.1414
     18 F         141.6725  143.3880  169.0396 F       1  UNL1       -0.2041
     19 C         140.2288  142.9997  164.5294 C.ar    1  UNL1       -0.0038
     20 C         139.8057  144.2309  165.2743 C.ar    1  UNL1       -0.0027
     21 C         138.4127  144.7635  165.1130 C.ar    1  UNL1       -0.0003
     22 C         137.4429  144.0649  164.2068 C.ar    1  UNL1       -0.0000
     23 C         137.8660  142.8337  163.4619 C.ar    1  UNL1       -0.0003
     24 C         139.2590  142.3010  163.6231 C.ar    1  UNL1       -0.0027
     25 C         141.7866  142.9086  163.2666 C.3     1  UNL1        0.0263
     26 C         141.9196  144.3676  162.9445 C.3     1  UNL1        0.0189
     27 C         140.9722  145.0112  161.9758 C.3     1  UNL1        0.0652
     28 N         140.4207  146.3766  162.2610 N.3     1  UNL1       -0.3211
     29 H         139.8208  146.3358  163.0849 H       1  UNL1        0.1189
     30 H         139.8769  146.6978  161.4600 H       1  UNL1        0.1189
@<TRIPOS>BOND
     1     1     2    1
     2     2     3    1
     3     2     4   am
     4     4     5    2
     5     4     6   am
     6     6     7    1
     7     7     8    2
     8     8    11    1
     9    11    12   ar
    10    12    13   ar
    11    13    14    1
    12    13    15   ar
    13    15    16   ar
    14    16    17   ar
    15    17    18    1
    16     8     9    1
    17     9    10    1
    18    10    25    1
    19    25    26    1
    20    26    27    1
    21    27    28    1
    22    10    19    1
    23    19    20   ar
    24    20    21   ar
    25    21    22   ar
    26    22    23   ar
    27    23    24   ar
    28    10     6    1
    29    24    19   ar
    30    17    11   ar
    31    28    29    1
    32    28    30    1
@<TRIPOS>MOLECULE
*****
 30 32 0 0 0
SMALL
GASTEIGER

@<TRIPOS>ATOM
      1 C         137.3117  138.2569  167.5886 C.3     1  UNL1        0.1166
      2 N         138.4752  139.1636  167.3167 N.am    1  UNL1       -0.2592
      3 C         139.0645  139.9815  168.4276 C.3     1  UNL1        0.1166
      4 C         139.0496  139.2525  165.9338 C.2     1  UNL1        0.3264
      5 O         138.4605  138.4347  164.8230 O.2     1  UNL1       -0.2506
      6 N         140.2132  140.1592  165.6619 N.am    1  UNL1       -0.1644
      7 N         140.8902  140.3518  164.3373 N.2     1  UNL1       -0.1786
      8 C         141.9995  141.3442  164.5236 C.2     1  UNL1        0.0808
      9 C         142.0080  141.7650  165.9633 C.3     1  UNL1        0.0719
     10 C         140.9041  141.0327  166.6668 C.3     1  UNL1        0.1079
     11 C         142.9359  141.8304  163.4573 C.ar    1  UNL1        0.0448
     12 C         142.4037  142.6044  162.2878 C.ar    1  UNL1        0.0331
     13 C         143.3400  143.0905  161.2216 C.ar    1  UNL1        0.1403
     14 F         142.8079  143.8646  160.0521 F       1  UNL1       -0.2042
     15 C         144.8085  142.8027  161.3248 C.ar    1  UNL1        0.0319
     16 C         145.3407  142.0286  162.4942 C.ar    1  UNL1        0.0320
     17 C         144.4043  141.5425  163.5605 C.ar    1  UNL1        0.1414
     18 F         144.9365  140.7684  164.7300 F       1  UNL1       -0.2041
     19 C         141.3851  141.7859  167.8715 C.ar    1  UNL1       -0.0038
     20 C         140.5366  142.8707  168.4660 C.ar    1  UNL1       -0.0027
     21 C         141.0177  143.6239  169.6706 C.ar    1  UNL1       -0.0003
     22 C         142.3473  143.2924  170.2808 C.ar    1  UNL1       -0.0000
     23 C         143.1957  142.2077  169.6864 C.ar    1  UNL1       -0.0003
     24 C         142.7147  141.4544  168.4817 C.ar    1  UNL1       -0.0027
     25 C         139.9007  140.4578  167.6222 C.3     1  UNL1        0.0263
     26 C         140.3601  139.8310  168.9051 C.3     1  UNL1        0.0189
     27 C         139.6435  140.1351  170.1873 C.3     1  UNL1        0.0652
     28 N         140.4062  140.1913  171.4777 N.3     1  UNL1       -0.3211
     29 H         140.7673  139.2637  171.6999 H       1  UNL1        0.1189
     30 H         139.7866  140.5031  172.2256 H       1  UNL1        0.1189
@<TRIPOS>BOND
     1     1     2    1
     2     2     3    1
     3     2     4   am
     4     4     5    2
     5     4     6   am
     6     6     7    1
     7     7     8    2
     8     8    11    1
     9    11    12   ar
    10    12    13   ar
    11    13    14    1
    12    13    15   ar
    13    15    16   ar
    14    16    17   ar
    15    17    18    1
    16     8     9    1
    17     9    10    1
    18    10    25    1
    19    25    26    1
    20    26    27    1
    21    27    28    1
    22    10    19    1
    23    19    20   ar
    24    20    21   ar
    25    21    22   ar
    26    22    23   ar
    27    23    24   ar
    28    10     6    1
    29    24    19   ar
    30    17    11   ar
    31    28    29    1
    32    28    30    1
@<TRIPOS>MOLECULE
*****
 30 32 0 0 0
SMALL
GASTEIGER

@<TRIPOS>ATOM
      1 C         144.4628  142.6980  160.2267 C.3     1  UNL1        0.1166
      2 N         143.6226  142.6283  161.4673 N.am    1  UNL1       -0.2592
      3 C         142.2171  143.1522  161.4517 C.3     1  UNL1        0.1166
      4 C         144.1878  142.0347  162.7235 C.2     1  UNL1        0.3264
      5 O         145.5932  141.5108  162.7392 O.2     1  UNL1       -0.2506
      6 N         143.3476  141.9650  163.9641 N.am    1  UNL1       -0.1644
      7 N         143.7741  141.4020  165.2874 N.2     1  UNL1       -0.1786
      8 C         142.6234  141.5351  166.2404 C.2     1  UNL1        0.0808
      9 C         141.4857  142.1803  165.5061 C.3     1  UNL1        0.0719
     10 C         141.9332  142.4460  164.0993 C.3     1  UNL1        0.1079
     11 C         142.6124  141.0994  167.6758 C.ar    1  UNL1        0.0448
     12 C         142.5972  142.1246  168.7706 C.ar    1  UNL1        0.0331
     13 C         142.5863  141.6889  170.2059 C.ar    1  UNL1        0.1403
     14 F         142.5711  142.7141  171.3008 F       1  UNL1       -0.2042
     15 C         142.5905  140.2280  170.5463 C.ar    1  UNL1        0.0319
     16 C         142.6057  139.2029  169.4514 C.ar    1  UNL1        0.0320
     17 C         142.6166  139.6386  168.0162 C.ar    1  UNL1        0.1414
     18 F         142.6318  138.6134  166.9212 F       1  UNL1       -0.2041
     19 C         140.5520  143.0070  163.9331 C.ar    1  UNL1       -0.0038
     20 C         140.1593  144.2601  164.6580 C.ar    1  UNL1       -0.0027
     21 C         138.7781  144.8212  164.4918 C.ar    1  UNL1       -0.0003
     22 C         137.7897  144.1291  163.6006 C.ar    1  UNL1       -0.0000
     23 C         138.1825  142.8761  162.8757 C.ar    1  UNL1       -0.0003
     24 C         139.5637  142.3150  163.0419 C.ar    1  UNL1       -0.0027
     25 C         142.0920  142.8289  162.6578 C.3     1  UNL1        0.0263
     26 C         142.1982  144.2749  162.2732 C.3     1  UNL1        0.0189
     27 C         141.2873  144.8410  161.2245 C.3     1  UNL1        0.0652
     28 N         140.5026  146.0879  161.5063 N.3     1  UNL1       -0.3211
     29 H         139.8210  145.9018  162.2419 H       1  UNL1        0.1189
     30 H         140.0167  146.3826  160.6592 H       1  UNL1        0.1189
@<TRIPOS>BOND
     1     1     2    1
     2     2     3    1
     3     2     4   am
     4     4     5    2
     5     4     6   am
     6     6     7    1
     7     7     8    2
     8     8    11    1
     9    11    12   ar
    10    12    13   ar
    11    13    14    1
    12    13    15   ar
    13    15    16   ar
    14    16    17   ar
    15    17    18    1
    16     8     9    1
    17     9    10    1
    18    10    25    1
    19    25    26    1
    20    26    27    1
    21    27    28    1
    22    10    19    1
    23    19    20   ar
    24    20    21   ar
    25    21    22   ar
    26    22    23   ar
    27    23    24   ar
    28    10     6    1
    29    24    19   ar
    30    17    11   ar
    31    28    29    1
    32    28    30    1
@<TRIPOS>MOLECULE
*****
 30 32 0 0 0
SMALL
GASTEIGER

@<TRIPOS>ATOM
      1 C         138.1019  137.9758  162.1530 C.3     1  UNL1        0.1166
      2 N         138.7252  139.0594  162.9820 N.am    1  UNL1       -0.2592
      3 C         138.9859  140.4083  162.3799 C.3     1  UNL1        0.1166
      4 C         139.0877  138.7942  164.4132 C.2     1  UNL1        0.3264
      5 O         138.8269  137.4453  165.0154 O.2     1  UNL1       -0.2506
      6 N         139.7109  139.8778  165.2423 N.am    1  UNL1       -0.1644
      7 N         140.1247  139.7609  166.6793 N.2     1  UNL1       -0.1786
      8 C         140.6993  141.0795  167.1050 C.2     1  UNL1        0.0808
      9 C         140.6406  142.0113  165.9311 C.3     1  UNL1        0.0719
     10 C         140.0297  141.2687  164.7798 C.3     1  UNL1        0.1079
     11 C         141.2380  141.4084  168.4658 C.ar    1  UNL1        0.0448
     12 C         142.6535  141.8808  168.6179 C.ar    1  UNL1        0.0331
     13 C         143.1922  142.2097  169.9787 C.ar    1  UNL1        0.1403
     14 F         144.6077  142.6821  170.1309 F       1  UNL1       -0.2042
     15 C         142.3153  142.0662  171.1872 C.ar    1  UNL1        0.0319
     16 C         140.8999  141.5937  171.0351 C.ar    1  UNL1        0.0320
     17 C         140.3612  141.2648  169.6743 C.ar    1  UNL1        0.1414
     18 F         138.9457  140.7924  169.5221 F       1  UNL1       -0.2041
     19 C         140.2295  142.5608  164.0446 C.ar    1  UNL1       -0.0038
     20 C         141.2785  142.6619  162.9772 C.ar    1  UNL1       -0.0027
     21 C         141.4784  143.9539  162.2419 C.ar    1  UNL1       -0.0003
     22 C         140.6291  145.1449  162.5741 C.ar    1  UNL1       -0.0000
     23 C         139.5802  145.0439  163.6414 C.ar    1  UNL1       -0.0003
     24 C         139.3803  143.7518  164.3767 C.ar    1  UNL1       -0.0027
     25 C         139.4606  140.7962  163.4749 C.3     1  UNL1        0.0263
     26 C         138.1657  141.3625  162.9725 C.3     1  UNL1        0.0189
     27 C         138.0420  141.7973  161.5422 C.3     1  UNL1        0.0652
     28 N         137.6620  143.2118  161.2184 N.3     1  UNL1       -0.3211
     29 H         136.7081  143.3882  161.5336 H       1  UNL1        0.1189
     30 H         137.7195  143.3571  160.2105 H       1  UNL1        0.1189
@<TRIPOS>BOND
     1     1     2    1
     2     2     3    1
     3     2     4   am
     4     4     5    2
     5     4     6   am
     6     6     7    1
     7     7     8    2
     8     8    11    1
     9    11    12   ar
    10    12    13   ar
    11    13    14    1
    12    13    15   ar
    13    15    16   ar
    14    16    17   ar
    15    17    18    1
    16     8     9    1
    17     9    10    1
    18    10    25    1
    19    25    26    1
    20    26    27    1
    21    27    28    1
    22    10    19    1
    23    19    20   ar
    24    20    21   ar
    25    21    22   ar
    26    22    23   ar
    27    23    24   ar
    28    10     6    1
    29    24    19   ar
    30    17    11   ar
    31    28    29    1
    32    28    30    1
@<TRIPOS>MOLECULE
*****
 30 32 0 0 0
SMALL
GASTEIGER

@<TRIPOS>ATOM
      1 C         139.2759  139.7108  159.8796 C.3     1  UNL1        0.1166
      2 N         139.9820  140.1348  161.1332 N.am    1  UNL1       -0.2592
      3 C         141.4526  140.4292  161.1027 C.3     1  UNL1        0.1166
      4 C         139.2176  140.2646  162.4173 C.2     1  UNL1        0.3264
      5 O         137.7471  139.9703  162.4478 O.2     1  UNL1       -0.2506
      6 N         139.9238  140.6886  163.6709 N.am    1  UNL1       -0.1644
      7 N         139.2950  140.8610  165.0218 N.2     1  UNL1       -0.1786
      8 C         140.3653  141.2937  165.9795 C.2     1  UNL1        0.0808
      9 C         141.6556  141.3887  165.2205 C.3     1  UNL1        0.0719
     10 C         141.3828  141.0148  163.7938 C.3     1  UNL1        0.1079
     11 C         140.1781  141.5809  167.4399 C.ar    1  UNL1        0.0448
     12 C         140.5907  142.9090  168.0019 C.ar    1  UNL1        0.0331
     13 C         140.4035  143.1961  169.4622 C.ar    1  UNL1        0.1403
     14 F         140.8160  144.5243  170.0243 F       1  UNL1       -0.2042
     15 C         139.8038  142.1552  170.3604 C.ar    1  UNL1        0.0319
     16 C         139.3912  140.8271  169.7984 C.ar    1  UNL1        0.0320
     17 C         139.5784  140.5400  168.3381 C.ar    1  UNL1        0.1414
     18 F         139.1659  139.2118  167.7759 F       1  UNL1       -0.2041
     19 C         142.8488  141.2741  163.6103 C.ar    1  UNL1       -0.0038
     20 C         143.3067  142.4257  162.7653 C.ar    1  UNL1       -0.0027
     21 C         144.7727  142.6850  162.5818 C.ar    1  UNL1       -0.0003
     22 C         145.7807  141.7927  163.2433 C.ar    1  UNL1       -0.0000
     23 C         145.3228  140.6410  164.0882 C.ar    1  UNL1       -0.0003
     24 C         143.8568  140.3817  164.2717 C.ar    1  UNL1       -0.0027
     25 C         141.4164  140.6950  162.3286 C.3     1  UNL1        0.0263
     26 C         142.1706  139.4940  161.8402 C.3     1  UNL1        0.0189
     27 C         142.1673  138.2280  162.6449 C.3     1  UNL1        0.0652
     28 N         141.2489  137.1030  162.2693 N.3     1  UNL1       -0.3211
     29 H         140.2810  137.3943  162.4055 H       1  UNL1        0.1189
     30 H         141.4460  136.2927  162.8567 H       1  UNL1        0.1189
@<TRIPOS>BOND
     1     1     2    1
     2     2     3    1
     3     2     4   am
     4     4     5    2
     5     4     6   am
     6     6     7    1
     7     7     8    2
     8     8    11    1
     9    11    12   ar
    10    12    13   ar
    11    13    14    1
    12    13    15   ar
    13    15    16   ar
    14    16    17   ar
    15    17    18    1
    16     8     9    1
    17     9    10    1
    18    10    25    1
    19    25    26    1
    20    26    27    1
    21    27    28    1
    22    10    19    1
    23    19    20   ar
    24    20    21   ar
    25    21    22   ar
    26    22    23   ar
    27    23    24   ar
    28    10     6    1
    29    24    19   ar
    30    17    11   ar
    31    28    29    1
    32    28    30    1
@<TRIPOS>MOLECULE
*****
 30 32 0 0 0
SMALL
GASTEIGER

@<TRIPOS>ATOM
      1 C         144.2710  140.8899  161.1092 C.3     1  UNL1        0.1166
      2 N         143.2585  141.1797  162.1772 N.am    1  UNL1       -0.2592
      3 C         142.0691  142.0405  161.8696 C.3     1  UNL1        0.1166
      4 C         143.4352  140.6088  163.5530 C.2     1  UNL1        0.3264
      5 O         144.6245  139.7481  163.8608 O.2     1  UNL1       -0.2506
      6 N         142.4227  140.8985  164.6211 N.am    1  UNL1       -0.1644
      7 N         142.4656  140.4002  166.0352 N.2     1  UNL1       -0.1786
      8 C         141.2589  140.9312  166.7507 C.2     1  UNL1        0.0808
      9 C         140.4702  141.7578  165.7788 C.3     1  UNL1        0.0719
     10 C         141.1894  141.7376  164.4626 C.3     1  UNL1        0.1079
     11 C         140.9034  140.6798  168.1862 C.ar    1  UNL1        0.0448
     12 C         139.4817  140.3904  168.5671 C.ar    1  UNL1        0.0331
     13 C         139.1263  140.1390  170.0025 C.ar    1  UNL1        0.1403
     14 F         137.7046  139.8496  170.3835 F       1  UNL1       -0.2042
     15 C         140.1924  140.1769  171.0569 C.ar    1  UNL1        0.0319
     16 C         141.6141  140.4663  170.6760 C.ar    1  UNL1        0.0320
     17 C         141.9695  140.7177  169.2406 C.ar    1  UNL1        0.1414
     18 F         143.3912  141.0071  168.8596 F       1  UNL1       -0.2041
     19 C         140.0571  142.6106  164.0091 C.ar    1  UNL1       -0.0038
     20 C         139.1227  142.1309  162.9382 C.ar    1  UNL1       -0.0027
     21 C         137.9903  143.0039  162.4847 C.ar    1  UNL1       -0.0003
     22 C         137.7924  144.3565  163.1021 C.ar    1  UNL1       -0.0000
     23 C         138.7267  144.8362  164.1730 C.ar    1  UNL1       -0.0003
     24 C         139.8591  143.9632  164.6265 C.ar    1  UNL1       -0.0027
     25 C         141.6720  141.8999  163.0517 C.3     1  UNL1        0.0263
     26 C         142.0264  143.2617  162.5322 C.3     1  UNL1        0.0189
     27 C         142.9892  144.1266  163.2907 C.3     1  UNL1        0.0652
     28 N         143.8761  145.0861  162.5540 N.3     1  UNL1       -0.3211
     29 H         144.5345  144.5647  161.9752 H       1  UNL1        0.1189
     30 H         144.3909  145.6567  163.2247 H       1  UNL1        0.1189
@<TRIPOS>BOND
     1     1     2    1
     2     2     3    1
     3     2     4   am
     4     4     5    2
     5     4     6   am
     6     6     7    1
     7     7     8    2
     8     8    11    1
     9    11    12   ar
    10    12    13   ar
    11    13    14    1
    12    13    15   ar
    13    15    16   ar
    14    16    17   ar
    15    17    18    1
    16     8     9    1
    17     9    10    1
    18    10    25    1
    19    25    26    1
    20    26    27    1
    21    27    28    1
    22    10    19    1
    23    19    20   ar
    24    20    21   ar
    25    21    22   ar
    26    22    23   ar
    27    23    24   ar
    28    10     6    1
    29    24    19   ar
    30    17    11   ar
    31    28    29    1
    32    28    30    1
@<TRIPOS>MOLECULE
*****
 30 32 0 0 0
SMALL
GASTEIGER

@<TRIPOS>ATOM
      1 C         140.9470  138.8819  160.0396 C.3     1  UNL1        0.1166
      2 N         141.1149  139.6045  161.3433 N.am    1  UNL1       -0.2592
      3 C         141.7025  140.9845  161.3657 C.3     1  UNL1        0.1166
      4 C         140.6951  138.9472  162.6247 C.2     1  UNL1        0.3264
      5 O         140.1075  137.5673  162.6023 O.2     1  UNL1       -0.2506
      6 N         140.8630  139.6699  163.9283 N.am    1  UNL1       -0.1644
      7 N         140.4912  139.1432  165.2827 N.2     1  UNL1       -0.1786
      8 C         140.8306  140.1939  166.2979 C.2     1  UNL1        0.0808
      9 C         141.4122  141.3701  165.5711 C.3     1  UNL1        0.0719
     10 C         141.4322  141.0463  164.1066 C.3     1  UNL1        0.1079
     11 C         140.6245  140.0872  167.7799 C.ar    1  UNL1        0.0448
     12 C         139.2422  140.1851  168.3539 C.ar    1  UNL1        0.0331
     13 C         139.0362  140.0784  169.8358 C.ar    1  UNL1        0.1403
     14 F         137.6538  140.1763  170.4099 F       1  UNL1       -0.2042
     15 C         140.2125  139.8737  170.7438 C.ar    1  UNL1        0.0319
     16 C         141.5949  139.7758  170.1698 C.ar    1  UNL1        0.0320
     17 C         141.8009  139.8826  168.6879 C.ar    1  UNL1        0.1414
     18 F         143.1833  139.7847  168.1138 F       1  UNL1       -0.2041
     19 C         142.0318  142.4147  163.9728 C.ar    1  UNL1       -0.0038
     20 C         143.3746  142.7072  164.5740 C.ar    1  UNL1       -0.0027
     21 C         143.9742  144.0756  164.4402 C.ar    1  UNL1       -0.0003
     22 C         143.2310  145.1515  163.7052 C.ar    1  UNL1       -0.0000
     23 C         141.8884  144.8590  163.1040 C.ar    1  UNL1       -0.0003
     24 C         141.2887  143.4905  163.2378 C.ar    1  UNL1       -0.0027
     25 C         141.5776  141.0085  162.6141 C.3     1  UNL1        0.0263
     26 C         142.9177  141.2494  161.9848 C.3     1  UNL1        0.0189
     27 C         143.9722  140.1837  162.0345 C.3     1  UNL1        0.0652
     28 N         145.2432  140.4211  162.7950 N.3     1  UNL1       -0.3211
     29 H         145.7747  141.1662  162.3449 H       1  UNL1        0.1189
     30 H         145.7984  139.5655  162.8048 H       1  UNL1        0.1189
@<TRIPOS>BOND
     1     1     2    1
     2     2     3    1
     3     2     4   am
     4     4     5    2
     5     4     6   am
     6     6     7    1
     7     7     8    2
     8     8    11    1
     9    11    12   ar
    10    12    13   ar
    11    13    14    1
    12    13    15   ar
    13    15    16   ar
    14    16    17   ar
    15    17    18    1
    16     8     9    1
    17     9    10    1
    18    10    25    1
    19    25    26    1
    20    26    27    1
    21    27    28    1
    22    10    19    1
    23    19    20   ar
    24    20    21   ar
    25    21    22   ar
    26    22    23   ar
    27    23    24   ar
    28    10     6    1
    29    24    19   ar
    30    17    11   ar
    31    28    29    1
    32    28    30    1
@<TRIPOS>MOLECULE
*****
 30 32 0 0 0
SMALL
GASTEIGER

@<TRIPOS>ATOM
      1 C         139.0451  139.4375  160.7442 C.3     1  UNL1        0.1166
      2 N         139.6991  140.1520  161.8895 N.am    1  UNL1       -0.2592
      3 C         140.6459  141.2849  161.6244 C.3     1  UNL1        0.1166
      4 C         139.4063  139.7337  163.3000 C.2     1  UNL1        0.3264
      5 O         138.4596  138.6009  163.5651 O.2     1  UNL1       -0.2506
      6 N         140.0603  140.4483  164.4453 N.am    1  UNL1       -0.1644
      7 N         139.8657  140.1438  165.9011 N.2     1  UNL1       -0.1786
      8 C         140.7088  141.1001  166.6914 C.2     1  UNL1        0.0808
      9 C         141.4245  141.9957  165.7241 C.3     1  UNL1        0.0719
     10 C         141.0237  141.5928  164.3359 C.3     1  UNL1        0.1079
     11 C         140.8172  141.1518  168.1867 C.ar    1  UNL1        0.0448
     12 C         140.0494  142.1832  168.9591 C.ar    1  UNL1        0.0331
     13 C         140.1579  142.2348  170.4543 C.ar    1  UNL1        0.1403
     14 F         139.3901  143.2662  171.2268 F       1  UNL1       -0.2042
     15 C         141.0341  141.2550  171.1770 C.ar    1  UNL1        0.0319
     16 C         141.8019  140.2237  170.4045 C.ar    1  UNL1        0.0320
     17 C         141.6935  140.1720  168.9094 C.ar    1  UNL1        0.1414
     18 F         142.4613  139.1406  168.1369 F       1  UNL1       -0.2041
     19 C         141.9434  142.7016  163.9180 C.ar    1  UNL1       -0.0038
     20 C         143.2001  142.3885  163.1611 C.ar    1  UNL1       -0.0027
     21 C         144.1199  143.4973  162.7432 C.ar    1  UNL1       -0.0003
     22 C         143.7830  144.9191  163.0822 C.ar    1  UNL1       -0.0000
     23 C         142.5264  145.2322  163.8390 C.ar    1  UNL1       -0.0003
     24 C         141.6065  144.1234  164.2569 C.ar    1  UNL1       -0.0027
     25 C         140.8151  141.4218  162.8603 C.3     1  UNL1        0.0263
     26 C         140.1308  142.4974  162.0700 C.3     1  UNL1        0.0189
     27 C         138.8592  143.1088  162.5794 C.3     1  UNL1        0.0652
     28 N         137.6749  143.2444  161.6690 N.3     1  UNL1       -0.3211
     29 H         137.8939  143.9036  160.9221 H       1  UNL1        0.1189
     30 H         136.8747  143.5867  162.2008 H       1  UNL1        0.1189
@<TRIPOS>BOND
     1     1     2    1
     2     2     3    1
     3     2     4   am
     4     4     5    2
     5     4     6   am
     6     6     7    1
     7     7     8    2
     8     8    11    1
     9    11    12   ar
    10    12    13   ar
    11    13    14    1
    12    13    15   ar
    13    15    16   ar
    14    16    17   ar
    15    17    18    1
    16     8     9    1
    17     9    10    1
    18    10    25    1
    19    25    26    1
    20    26    27    1
    21    27    28    1
    22    10    19    1
    23    19    20   ar
    24    20    21   ar
    25    21    22   ar
    26    22    23   ar
    27    23    24   ar
    28    10     6    1
    29    24    19   ar
    30    17    11   ar
    31    28    29    1
    32    28    30    1
@<TRIPOS>MOLECULE
*****
 30 32 0 0 0
SMALL
GASTEIGER

@<TRIPOS>ATOM
      1 C         140.5939  145.1747  160.4668 C.3     1  UNL1        0.1166
      2 N         140.6262  144.0634  161.4738 N.am    1  UNL1       -0.2592
      3 C         140.1475  142.6933  161.0945 C.3     1  UNL1        0.1166
      4 C         141.1372  144.3222  162.8602 C.2     1  UNL1        0.3264
      5 O         141.6159  145.6922  163.2395 O.2     1  UNL1       -0.2506
      6 N         141.1696  143.2110  163.8672 N.am    1  UNL1       -0.1644
      7 N         141.6509  143.3186  165.2838 N.2     1  UNL1       -0.1786
      8 C         141.5051  141.9711  165.9265 C.2     1  UNL1        0.0808
      9 C         140.9337  141.0307  164.9071 C.3     1  UNL1        0.0719
     10 C         140.7264  141.7969  163.6344 C.3     1  UNL1        0.1079
     11 C         141.8672  141.6248  167.3404 C.ar    1  UNL1        0.0448
     12 C         143.0854  142.2302  167.9724 C.ar    1  UNL1        0.0331
     13 C         143.4474  141.8839  169.3862 C.ar    1  UNL1        0.1403
     14 F         144.6657  142.4892  170.0182 F       1  UNL1       -0.2042
     15 C         142.5912  140.9323  170.1681 C.ar    1  UNL1        0.0319
     16 C         141.3729  140.3270  169.5362 C.ar    1  UNL1        0.0320
     17 C         141.0109  140.6733  168.1223 C.ar    1  UNL1        0.1414
     18 F         139.7926  140.0680  167.4903 F       1  UNL1       -0.2041
     19 C         140.2175  140.4859  163.1127 C.ar    1  UNL1       -0.0038
     20 C         140.9256  139.8037  161.9799 C.ar    1  UNL1       -0.0027
     21 C         140.4167  138.4927  161.4582 C.ar    1  UNL1       -0.0003
     22 C         139.1998  137.8637  162.0694 C.ar    1  UNL1       -0.0000
     23 C         138.4918  138.5458  163.2022 C.ar    1  UNL1       -0.0003
     24 C         139.0006  139.8569  163.7239 C.ar    1  UNL1       -0.0027
     25 C         140.4126  142.2891  162.2526 C.3     1  UNL1        0.0263
     26 C         138.9867  142.3900  161.7981 C.3     1  UNL1        0.0189
     27 C         137.9353  142.9054  162.7358 C.3     1  UNL1        0.0652
     28 N         137.4868  144.3340  162.6474 N.3     1  UNL1       -0.3211
     29 H         138.2593  144.9493  162.9024 H       1  UNL1        0.1189
     30 H         136.7063  144.4854  163.2864 H       1  UNL1        0.1189
@<TRIPOS>BOND
     1     1     2    1
     2     2     3    1
     3     2     4   am
     4     4     5    2
     5     4     6   am
     6     6     7    1
     7     7     8    2
     8     8    11    1
     9    11    12   ar
    10    12    13   ar
    11    13    14    1
    12    13    15   ar
    13    15    16   ar
    14    16    17   ar
    15    17    18    1
    16     8     9    1
    17     9    10    1
    18    10    25    1
    19    25    26    1
    20    26    27    1
    21    27    28    1
    22    10    19    1
    23    19    20   ar
    24    20    21   ar
    25    21    22   ar
    26    22    23   ar
    27    23    24   ar
    28    10     6    1
    29    24    19   ar
    30    17    11   ar
    31    28    29    1
    32    28    30    1
