@<TRIPOS>MOLECULE
*****
 29 32 0 0 0
SMALL
GASTEIGER

@<TRIPOS>ATOM
      1 N         139.5290  140.3634  166.2661 N.ar    1  UNL1       -0.2143
      2 N         140.4811  141.1290  165.3958 N.ar    1  UNL1       -0.1708
      3 C         141.6790  141.7978  166.0021 C.ar    1  UNL1        0.0846
      4 C         141.9249  141.7010  167.4787 C.ar    1  UNL1        0.0380
      5 C         143.1228  142.3698  168.0850 C.ar    1  UNL1        0.0045
      6 C         143.3687  142.2729  169.5615 C.ar    1  UNL1        0.0207
      7 C         142.4166  141.5072  170.4317 C.ar    1  UNL1        0.0990
      8 N         141.2187  140.8384  169.8254 N.ar    1  UNL1       -0.2389
      9 C         140.9728  140.9353  168.3489 C.ar    1  UNL1        0.1398
     10 C         139.7749  140.2665  167.7426 C.ar    1  UNL1        0.2941
     11 O         138.8228  139.5008  168.6128 O.2     1  UNL1       -0.2638
     12 C         138.3310  139.6945  165.6597 C.3     1  UNL1        0.1466
     13 N         137.8830  140.0663  163.0509 N.3     1  UNL1       -0.2721
     14 C         138.0995  139.2507  161.8107 C.3     1  UNL1        0.0722
     15 C         138.7106  137.9424  162.2171 C.3     1  UNL1        0.0188
     16 C         138.8717  137.9495  163.7084 C.3     1  UNL1        0.0194
     17 C         138.3602  139.2621  164.2237 C.3     1  UNL1        0.0821
     18 C         137.2929  141.4441  163.1081 C.3     1  UNL1        0.0721
     19 C         138.1143  142.6296  162.6959 C.3     1  UNL1        0.0173
     20 C         138.0330  144.2483  164.7264 C.3     1  UNL1        0.0000
     21 C         137.8147  143.9843  163.2660 C.3     1  UNL1        0.0014
     22 C         142.6311  142.5635  165.1319 C.3     1  UNL1        0.0739
     23 C         142.1211  143.2987  163.9280 C.ar    1  UNL1       -0.0161
     24 C         142.0871  142.6175  162.5919 C.ar    1  UNL1       -0.0030
     25 C         141.5771  143.3526  161.3880 C.ar    1  UNL1        0.0111
     26 C         141.1011  144.7690  161.5201 C.ar    1  UNL1        0.0577
     27 CL        140.5911  145.5041  160.3162 Cl      1  UNL1       -0.0822
     28 C         141.1350  145.4501  162.8560 C.ar    1  UNL1        0.0111
     29 C         141.6451  144.7150  164.0600 C.ar    1  UNL1       -0.0030
@<TRIPOS>BOND
     1    20    21    1
     2    21    19    1
     3    19    18    1
     4    18    13    1
     5    13    14    1
     6    14    15    1
     7    15    16    1
     8    16    17    1
     9    17    12    1
    10    12     1    1
    11     1     2   ar
    12     2     3   ar
    13     3    22    1
    14    22    23    1
    15    23    24   ar
    16    24    25   ar
    17    25    26   ar
    18    26    27    1
    19    26    28   ar
    20    28    29   ar
    21     3     4   ar
    22     4     5   ar
    23     5     6   ar
    24     6     7   ar
    25     7     8   ar
    26     8     9   ar
    27     9    10   ar
    28    10    11    2
    29    17    13    1
    30    10     1   ar
    31    29    23   ar
    32     9     4   ar
@<TRIPOS>MOLECULE
*****
 29 32 0 0 0
SMALL
GASTEIGER

@<TRIPOS>ATOM
      1 N         142.5099  139.8276  166.9088 N.ar    1  UNL1       -0.2143
      2 N         141.8752  140.9386  166.1259 N.ar    1  UNL1       -0.1708
      3 C         141.1186  142.0205  166.8377 C.ar    1  UNL1        0.0846
      4 C         140.9965  141.9916  168.3325 C.ar    1  UNL1        0.0380
      5 C         140.2398  143.0735  169.0443 C.ar    1  UNL1        0.0045
      6 C         140.1178  143.0445  170.5390 C.ar    1  UNL1        0.0207
      7 C         140.7524  141.9335  171.3219 C.ar    1  UNL1        0.0990
      8 N         141.5091  140.8516  170.6101 N.ar    1  UNL1       -0.2389
      9 C         141.6311  140.8806  169.1154 C.ar    1  UNL1        0.1398
     10 C         142.3879  139.7986  168.4035 C.ar    1  UNL1        0.2941
     11 O         143.0225  138.6876  169.1864 O.2     1  UNL1       -0.2638
     12 C         143.2666  138.7456  166.1969 C.3     1  UNL1        0.1466
     13 N         142.1650  137.9190  163.9060 N.3     1  UNL1       -0.2721
     14 C         142.4930  138.0830  162.4515 C.3     1  UNL1        0.0722
     15 C         143.7377  138.9137  162.3478 C.3     1  UNL1        0.0188
     16 C         144.1790  139.2629  163.7382 C.3     1  UNL1        0.0194
     17 C         143.2070  138.6482  164.7013 C.3     1  UNL1        0.0821
     18 C         140.9997  137.1591  164.4668 C.3     1  UNL1        0.0721
     19 C         139.6093  137.7029  164.3207 C.3     1  UNL1        0.0173
     20 C         138.4061  139.4399  165.8322 C.3     1  UNL1        0.0000
     21 C         139.3198  139.1291  164.6839 C.3     1  UNL1        0.0014
     22 C         140.4839  143.1315  166.0548 C.3     1  UNL1        0.0739
     23 C         139.8710  142.8499  164.7150 C.ar    1  UNL1       -0.0161
     24 C         138.3798  142.8668  164.5539 C.ar    1  UNL1       -0.0030
     25 C         137.7669  142.5852  163.2142 C.ar    1  UNL1        0.0111
     26 C         138.6452  142.2867  162.0354 C.ar    1  UNL1        0.0577
     27 CL        138.0324  142.0051  160.6956 Cl      1  UNL1       -0.0822
     28 C         140.1364  142.2698  162.1965 C.ar    1  UNL1        0.0111
     29 C         140.7494  142.5514  163.5363 C.ar    1  UNL1       -0.0030
@<TRIPOS>BOND
     1    20    21    1
     2    21    19    1
     3    19    18    1
     4    18    13    1
     5    13    14    1
     6    14    15    1
     7    15    16    1
     8    16    17    1
     9    17    12    1
    10    12     1    1
    11     1     2   ar
    12     2     3   ar
    13     3    22    1
    14    22    23    1
    15    23    24   ar
    16    24    25   ar
    17    25    26   ar
    18    26    27    1
    19    26    28   ar
    20    28    29   ar
    21     3     4   ar
    22     4     5   ar
    23     5     6   ar
    24     6     7   ar
    25     7     8   ar
    26     8     9   ar
    27     9    10   ar
    28    10    11    2
    29    17    13    1
    30    10     1   ar
    31    29    23   ar
    32     9     4   ar
@<TRIPOS>MOLECULE
*****
 29 32 0 0 0
SMALL
GASTEIGER

@<TRIPOS>ATOM
      1 N         139.1257  138.9602  165.3376 N.ar    1  UNL1       -0.2143
      2 N         140.0735  140.0697  164.9902 N.ar    1  UNL1       -0.1708
      3 C         140.5045  141.0456  166.0446 C.ar    1  UNL1        0.0846
      4 C         139.9875  140.9121  167.4464 C.ar    1  UNL1        0.0380
      5 C         140.4185  141.8881  168.5008 C.ar    1  UNL1        0.0045
      6 C         139.9016  141.7546  169.9025 C.ar    1  UNL1        0.0207
      7 C         138.9537  140.6451  170.2499 C.ar    1  UNL1        0.0990
      8 N         138.5228  139.6691  169.1955 N.ar    1  UNL1       -0.2389
      9 C         139.0397  139.8026  167.7938 C.ar    1  UNL1        0.1398
     10 C         138.6088  138.8267  166.7393 C.ar    1  UNL1        0.2941
     11 O         137.6609  137.7172  167.0867 O.2     1  UNL1       -0.2638
     12 C         138.6948  137.9842  164.2831 C.3     1  UNL1        0.1466
     13 N         140.3818  138.0340  162.2104 N.3     1  UNL1       -0.2721
     14 C         140.2710  138.4050  160.7612 C.3     1  UNL1        0.0722
     15 C         138.8579  138.8351  160.4996 C.3     1  UNL1        0.0188
     16 C         138.0955  138.7297  161.7871 C.3     1  UNL1        0.0194
     17 C         139.0373  138.2346  162.8444 C.3     1  UNL1        0.0821
     18 C         141.6198  137.5476  162.9037 C.3     1  UNL1        0.0721
     19 C         142.8920  138.3367  162.8085 C.3     1  UNL1        0.0173
     20 C         144.8114  139.4357  164.1716 C.3     1  UNL1        0.0000
     21 C         143.3495  139.1652  163.9723 C.3     1  UNL1        0.0014
     22 C         141.4523  142.1551  165.6972 C.3     1  UNL1        0.0739
     23 C         141.0315  143.2279  164.7371 C.ar    1  UNL1       -0.0161
     24 C         142.0180  143.7821  163.7522 C.ar    1  UNL1       -0.0030
     25 C         141.5973  144.8549  162.7921 C.ar    1  UNL1        0.0111
     26 C         140.1900  145.3737  162.8167 C.ar    1  UNL1        0.0577
     27 CL        139.7693  146.4465  161.8566 Cl      1  UNL1       -0.0822
     28 C         139.2036  144.8196  163.8015 C.ar    1  UNL1        0.0111
     29 C         139.6243  143.7467  164.7617 C.ar    1  UNL1       -0.0030
@<TRIPOS>BOND
     1    20    21    1
     2    21    19    1
     3    19    18    1
     4    18    13    1
     5    13    14    1
     6    14    15    1
     7    15    16    1
     8    16    17    1
     9    17    12    1
    10    12     1    1
    11     1     2   ar
    12     2     3   ar
    13     3    22    1
    14    22    23    1
    15    23    24   ar
    16    24    25   ar
    17    25    26   ar
    18    26    27    1
    19    26    28   ar
    20    28    29   ar
    21     3     4   ar
    22     4     5   ar
    23     5     6   ar
    24     6     7   ar
    25     7     8   ar
    26     8     9   ar
    27     9    10   ar
    28    10    11    2
    29    17    13    1
    30    10     1   ar
    31    29    23   ar
    32     9     4   ar
@<TRIPOS>MOLECULE
*****
 29 32 0 0 0
SMALL
GASTEIGER

@<TRIPOS>ATOM
      1 N         142.6853  141.1722  165.9897 N.ar    1  UNL1       -0.2143
      2 N         141.6337  140.2313  165.4809 N.ar    1  UNL1       -0.1708
      3 C         140.4770  139.8540  166.3582 C.ar    1  UNL1        0.0846
      4 C         140.3719  140.4175  167.7444 C.ar    1  UNL1        0.0380
      5 C         139.2153  140.0401  168.6217 C.ar    1  UNL1        0.0045
      6 C         139.1103  140.6036  170.0078 C.ar    1  UNL1        0.0207
      7 C         140.1619  141.5444  170.5166 C.ar    1  UNL1        0.0990
      8 N         141.3185  141.9218  169.6393 N.ar    1  UNL1       -0.2389
      9 C         141.4236  141.3583  168.2532 C.ar    1  UNL1        0.1398
     10 C         142.5803  141.7357  167.3758 C.ar    1  UNL1        0.2941
     11 O         143.6319  142.6765  167.8846 O.2     1  UNL1       -0.2638
     12 C         143.8420  141.5495  165.1123 C.3     1  UNL1        0.1466
     13 N         143.4469  142.7137  162.7388 N.3     1  UNL1       -0.2721
     14 C         143.4396  144.1280  162.2392 C.3     1  UNL1        0.0722
     15 C         143.7287  145.0316  163.4012 C.3     1  UNL1        0.0188
     16 C         143.9146  144.1756  164.6189 C.3     1  UNL1        0.0194
     17 C         143.7404  142.7431  164.2095 C.3     1  UNL1        0.0821
     18 C         143.2034  141.4856  161.9127 C.3     1  UNL1        0.0721
     19 C         141.8660  140.8074  161.9530 C.3     1  UNL1        0.0173
     20 C         141.5808  138.5735  160.6577 C.3     1  UNL1        0.0000
     21 C         141.7841  139.3097  161.9487 C.3     1  UNL1        0.0014
     22 C         139.4254  138.9131  165.8493 C.3     1  UNL1        0.0739
     23 C         138.8600  139.0943  164.4719 C.ar    1  UNL1       -0.0161
     24 C         138.8353  137.9405  163.5135 C.ar    1  UNL1       -0.0030
     25 C         138.2700  138.1217  162.1361 C.ar    1  UNL1        0.0111
     26 C         137.7293  139.4566  161.7168 C.ar    1  UNL1        0.0577
     27 CL        137.1640  139.6377  160.3393 Cl      1  UNL1       -0.0822
     28 C         137.7540  140.6103  162.6750 C.ar    1  UNL1        0.0111
     29 C         138.3194  140.4292  164.0526 C.ar    1  UNL1       -0.0030
@<TRIPOS>BOND
     1    20    21    1
     2    21    19    1
     3    19    18    1
     4    18    13    1
     5    13    14    1
     6    14    15    1
     7    15    16    1
     8    16    17    1
     9    17    12    1
    10    12     1    1
    11     1     2   ar
    12     2     3   ar
    13     3    22    1
    14    22    23    1
    15    23    24   ar
    16    24    25   ar
    17    25    26   ar
    18    26    27    1
    19    26    28   ar
    20    28    29   ar
    21     3     4   ar
    22     4     5   ar
    23     5     6   ar
    24     6     7   ar
    25     7     8   ar
    26     8     9   ar
    27     9    10   ar
    28    10    11    2
    29    17    13    1
    30    10     1   ar
    31    29    23   ar
    32     9     4   ar
@<TRIPOS>MOLECULE
*****
 29 32 0 0 0
SMALL
GASTEIGER

@<TRIPOS>ATOM
      1 N         141.9077  139.4960  166.2766 N.ar    1  UNL1       -0.2143
      2 N         141.0098  140.4726  165.5765 N.ar    1  UNL1       -0.1708
      3 C         140.5246  141.6952  166.2973 C.ar    1  UNL1        0.0846
      4 C         140.9373  141.9414  167.7183 C.ar    1  UNL1        0.0380
      5 C         140.4521  143.1641  168.4391 C.ar    1  UNL1        0.0045
      6 C         140.8648  143.4102  169.8600 C.ar    1  UNL1        0.0207
      7 C         141.7626  142.4337  170.5602 C.ar    1  UNL1        0.0990
      8 N         142.2478  141.2110  169.8394 N.ar    1  UNL1       -0.2389
      9 C         141.8351  140.9649  168.4184 C.ar    1  UNL1        0.1398
     10 C         142.3203  139.7421  167.6976 C.ar    1  UNL1        0.2941
     11 O         143.2182  138.7656  168.3977 O.2     1  UNL1       -0.2638
     12 C         142.3929  138.2733  165.5558 C.3     1  UNL1        0.1466
     13 N         143.7264  138.9895  163.3527 N.3     1  UNL1       -0.2721
     14 C         143.5364  138.7736  161.8806 C.3     1  UNL1        0.0722
     15 C         142.2903  137.9609  161.6883 C.3     1  UNL1        0.0188
     16 C         141.7103  137.6745  163.0417 C.3     1  UNL1        0.0194
     17 C         142.5979  138.3103  164.0703 C.3     1  UNL1        0.0821
     18 C         144.8481  139.7510  163.9945 C.3     1  UNL1        0.0721
     19 C         144.6349  141.1675  164.4397 C.3     1  UNL1        0.0173
     20 C         143.9142  142.5551  162.3650 C.3     1  UNL1        0.0000
     21 C         143.6264  142.0297  163.7402 C.3     1  UNL1        0.0014
     22 C         139.6268  142.6718  165.5972 C.3     1  UNL1        0.0739
     23 C         140.0531  143.2823  164.2951 C.ar    1  UNL1       -0.0161
     24 C         140.8372  144.5611  164.2874 C.ar    1  UNL1       -0.0030
     25 C         141.2635  145.1716  162.9853 C.ar    1  UNL1        0.0111
     26 C         140.9059  144.5034  161.6909 C.ar    1  UNL1        0.0577
     27 CL        141.3323  145.1139  160.3888 Cl      1  UNL1       -0.0822
     28 C         140.1219  143.2246  161.6985 C.ar    1  UNL1        0.0111
     29 C         139.6955  142.6141  163.0007 C.ar    1  UNL1       -0.0030
@<TRIPOS>BOND
     1    20    21    1
     2    21    19    1
     3    19    18    1
     4    18    13    1
     5    13    14    1
     6    14    15    1
     7    15    16    1
     8    16    17    1
     9    17    12    1
    10    12     1    1
    11     1     2   ar
    12     2     3   ar
    13     3    22    1
    14    22    23    1
    15    23    24   ar
    16    24    25   ar
    17    25    26   ar
    18    26    27    1
    19    26    28   ar
    20    28    29   ar
    21     3     4   ar
    22     4     5   ar
    23     5     6   ar
    24     6     7   ar
    25     7     8   ar
    26     8     9   ar
    27     9    10   ar
    28    10    11    2
    29    17    13    1
    30    10     1   ar
    31    29    23   ar
    32     9     4   ar
@<TRIPOS>MOLECULE
*****
 29 32 0 0 0
SMALL
GASTEIGER

@<TRIPOS>ATOM
      1 N         142.6045  141.2347  166.0483 N.ar    1  UNL1       -0.2143
      2 N         141.5156  140.3369  165.5403 N.ar    1  UNL1       -0.1708
      3 C         140.3900  139.9360  166.4471 C.ar    1  UNL1        0.0846
      4 C         140.3533  140.4329  167.8620 C.ar    1  UNL1        0.0380
      5 C         139.2278  140.0320  168.7687 C.ar    1  UNL1        0.0045
      6 C         139.1912  140.5289  170.1835 C.ar    1  UNL1        0.0207
      7 C         140.2801  141.4268  170.6915 C.ar    1  UNL1        0.0990
      8 N         141.4057  141.8277  169.7847 N.ar    1  UNL1       -0.2389
      9 C         141.4423  141.3308  168.3699 C.ar    1  UNL1        0.1398
     10 C         142.5679  141.7317  167.4631 C.ar    1  UNL1        0.2941
     11 O         143.6569  142.6295  167.9711 O.2     1  UNL1       -0.2638
     12 C         143.7301  141.6356  165.1414 C.3     1  UNL1        0.1466
     13 N         142.5341  143.1934  163.3282 N.3     1  UNL1       -0.2721
     14 C         142.5417  143.2760  161.8305 C.3     1  UNL1        0.0722
     15 C         143.4541  142.2043  161.3118 C.3     1  UNL1        0.0188
     16 C         144.0103  141.4593  162.4890 C.3     1  UNL1        0.0194
     17 C         143.4417  142.0707  163.7352 C.3     1  UNL1        0.0821
     18 C         141.7555  144.0782  164.2561 C.3     1  UNL1        0.0721
     19 C         140.3805  143.6747  164.6997 C.3     1  UNL1        0.0173
     20 C         137.8416  144.2231  164.7505 C.3     1  UNL1        0.0000
     21 C         139.2690  144.6819  164.7067 C.3     1  UNL1        0.0014
     22 C         139.3011  139.0381  165.9391 C.3     1  UNL1        0.0739
     23 C         138.7840  139.2034  164.5408 C.ar    1  UNL1       -0.0161
     24 C         138.1651  140.5030  164.1187 C.ar    1  UNL1       -0.0030
     25 C         137.6480  140.6682  162.7204 C.ar    1  UNL1        0.0111
     26 C         137.7498  139.5340  161.7441 C.ar    1  UNL1        0.0577
     27 CL        137.2327  139.6992  160.3458 Cl      1  UNL1       -0.0822
     28 C         138.3687  138.2344  162.1662 C.ar    1  UNL1        0.0111
     29 C         138.8858  138.0691  163.5645 C.ar    1  UNL1       -0.0030
@<TRIPOS>BOND
     1    20    21    1
     2    21    19    1
     3    19    18    1
     4    18    13    1
     5    13    14    1
     6    14    15    1
     7    15    16    1
     8    16    17    1
     9    17    12    1
    10    12     1    1
    11     1     2   ar
    12     2     3   ar
    13     3    22    1
    14    22    23    1
    15    23    24   ar
    16    24    25   ar
    17    25    26   ar
    18    26    27    1
    19    26    28   ar
    20    28    29   ar
    21     3     4   ar
    22     4     5   ar
    23     5     6   ar
    24     6     7   ar
    25     7     8   ar
    26     8     9   ar
    27     9    10   ar
    28    10    11    2
    29    17    13    1
    30    10     1   ar
    31    29    23   ar
    32     9     4   ar
@<TRIPOS>MOLECULE
*****
 29 32 0 0 0
SMALL
GASTEIGER

@<TRIPOS>ATOM
      1 N         142.4295  142.1418  166.4555 N.ar    1  UNL1       -0.2143
      2 N         141.2006  141.4454  165.9507 N.ar    1  UNL1       -0.1708
      3 C         140.2807  140.7553  166.9137 C.ar    1  UNL1        0.0846
      4 C         140.5895  140.7617  168.3816 C.ar    1  UNL1        0.0380
      5 C         139.6695  140.0717  169.3446 C.ar    1  UNL1        0.0045
      6 C         139.9784  140.0781  170.8124 C.ar    1  UNL1        0.0207
      7 C         141.2073  140.7745  171.3172 C.ar    1  UNL1        0.0990
      8 N         142.1273  141.4646  170.3542 N.ar    1  UNL1       -0.2389
      9 C         141.8184  141.4582  168.8864 C.ar    1  UNL1        0.1398
     10 C         142.7384  142.1482  167.9233 C.ar    1  UNL1        0.2941
     11 O         143.9673  142.8447  168.4281 O.2     1  UNL1       -0.2638
     12 C         143.3495  142.8319  165.4924 C.3     1  UNL1        0.1466
     13 N         144.2130  141.4400  163.3801 N.3     1  UNL1       -0.2721
     14 C         143.8551  141.3904  161.9243 C.3     1  UNL1        0.0722
     15 C         142.7524  142.3786  161.6841 C.3     1  UNL1        0.0188
     16 C         142.4288  143.0388  162.9915 C.3     1  UNL1        0.0194
     17 C         143.3315  142.4587  164.0397 C.3     1  UNL1        0.0821
     18 C         145.2672  140.6155  164.0574 C.3     1  UNL1        0.0721
     19 C         144.9498  139.2239  164.5187 C.3     1  UNL1        0.0173
     20 C         143.3328  138.5585  166.4402 C.3     1  UNL1        0.0000
     21 C         143.5678  138.8889  164.9960 C.3     1  UNL1        0.0014
     22 C         139.0518  140.0589  166.4089 C.3     1  UNL1        0.0739
     23 C         139.0144  139.5251  165.0076 C.ar    1  UNL1       -0.0161
     24 C         139.7182  138.2430  164.6743 C.ar    1  UNL1       -0.0030
     25 C         139.6808  137.7093  163.2730 C.ar    1  UNL1        0.0111
     26 C         138.9397  138.4576  162.2050 C.ar    1  UNL1        0.0577
     27 CL        138.9023  137.9239  160.8037 Cl      1  UNL1       -0.0822
     28 C         138.2359  139.7396  162.5382 C.ar    1  UNL1        0.0111
     29 C         138.2733  140.2734  163.9395 C.ar    1  UNL1       -0.0030
@<TRIPOS>BOND
     1    20    21    1
     2    21    19    1
     3    19    18    1
     4    18    13    1
     5    13    14    1
     6    14    15    1
     7    15    16    1
     8    16    17    1
     9    17    12    1
    10    12     1    1
    11     1     2   ar
    12     2     3   ar
    13     3    22    1
    14    22    23    1
    15    23    24   ar
    16    24    25   ar
    17    25    26   ar
    18    26    27    1
    19    26    28   ar
    20    28    29   ar
    21     3     4   ar
    22     4     5   ar
    23     5     6   ar
    24     6     7   ar
    25     7     8   ar
    26     8     9   ar
    27     9    10   ar
    28    10    11    2
    29    17    13    1
    30    10     1   ar
    31    29    23   ar
    32     9     4   ar
@<TRIPOS>MOLECULE
*****
 29 32 0 0 0
SMALL
GASTEIGER

@<TRIPOS>ATOM
      1 N         138.9911  139.5709  161.9567 N.ar    1  UNL1       -0.2143
      2 N         138.8787  139.3168  163.4308 N.ar    1  UNL1       -0.1708
      3 C         138.5316  140.4409  164.3613 C.ar    1  UNL1        0.0846
      4 C         138.2969  141.8192  163.8177 C.ar    1  UNL1        0.0380
      5 C         137.9498  142.9433  164.7482 C.ar    1  UNL1        0.0045
      6 C         137.7152  144.3215  164.2046 C.ar    1  UNL1        0.0207
      7 C         137.8276  144.5756  162.7306 C.ar    1  UNL1        0.0990
      8 N         138.1747  143.4515  161.8001 N.ar    1  UNL1       -0.2389
      9 C         138.4094  142.0733  162.3437 C.ar    1  UNL1        0.1398
     10 C         138.7564  140.9491  161.4132 C.ar    1  UNL1        0.2941
     11 O         138.8689  141.2031  159.9391 O.2     1  UNL1       -0.2638
     12 C         139.3382  138.4467  161.0262 C.3     1  UNL1        0.1466
     13 N         141.9146  137.8430  161.4034 N.3     1  UNL1       -0.2721
     14 C         143.1327  137.7992  160.5291 C.3     1  UNL1        0.0722
     15 C         142.7230  138.1996  159.1428 C.3     1  UNL1        0.0188
     16 C         141.2517  138.4909  159.1603 C.3     1  UNL1        0.0194
     17 C         140.7521  138.2705  160.5574 C.3     1  UNL1        0.0821
     18 C         141.8674  137.5166  162.8667 C.3     1  UNL1        0.0721
     19 C         142.3925  138.4988  163.8716 C.3     1  UNL1        0.0173
     20 C         143.5434  138.3187  166.1937 C.3     1  UNL1        0.0000
     21 C         142.3199  138.1842  165.3364 C.3     1  UNL1        0.0014
     22 C         138.4191  140.1869  165.8353 C.3     1  UNL1        0.0739
     23 C         139.5985  140.4284  166.7301 C.ar    1  UNL1       -0.0161
     24 C         140.7359  141.2845  166.2572 C.ar    1  UNL1       -0.0030
     25 C         141.9153  141.5260  167.1520 C.ar    1  UNL1        0.0111
     26 C         141.9574  140.9115  168.5197 C.ar    1  UNL1        0.0577
     27 CL        143.1367  141.1530  169.4145 Cl      1  UNL1       -0.0822
     28 C         140.8200  140.0555  168.9926 C.ar    1  UNL1        0.0111
     29 C         139.6406  139.8139  168.0978 C.ar    1  UNL1       -0.0030
@<TRIPOS>BOND
     1    20    21    1
     2    21    19    1
     3    19    18    1
     4    18    13    1
     5    13    14    1
     6    14    15    1
     7    15    16    1
     8    16    17    1
     9    17    12    1
    10    12     1    1
    11     1     2   ar
    12     2     3   ar
    13     3    22    1
    14    22    23    1
    15    23    24   ar
    16    24    25   ar
    17    25    26   ar
    18    26    27    1
    19    26    28   ar
    20    28    29   ar
    21     3     4   ar
    22     4     5   ar
    23     5     6   ar
    24     6     7   ar
    25     7     8   ar
    26     8     9   ar
    27     9    10   ar
    28    10    11    2
    29    17    13    1
    30    10     1   ar
    31    29    23   ar
    32     9     4   ar
@<TRIPOS>MOLECULE
*****
 29 32 0 0 0
SMALL
GASTEIGER

@<TRIPOS>ATOM
      1 N         142.0515  140.2387  165.9506 N.ar    1  UNL1       -0.2143
      2 N         141.2312  141.4132  165.5061 N.ar    1  UNL1       -0.1708
      3 C         140.6700  142.3635  166.5219 C.ar    1  UNL1        0.0846
      4 C         140.9290  142.1393  167.9823 C.ar    1  UNL1        0.0380
      5 C         140.3678  143.0896  168.9982 C.ar    1  UNL1        0.0045
      6 C         140.6269  142.8653  170.4585 C.ar    1  UNL1        0.0207
      7 C         141.4471  141.6907  170.9030 C.ar    1  UNL1        0.0990
      8 N         142.0083  140.7405  169.8871 N.ar    1  UNL1       -0.2389
      9 C         141.7493  140.9647  168.4268 C.ar    1  UNL1        0.1398
     10 C         142.3105  140.0144  167.4109 C.ar    1  UNL1        0.2941
     11 O         143.1308  138.8398  167.8554 O.2     1  UNL1       -0.2638
     12 C         142.6127  139.2883  164.9347 C.3     1  UNL1        0.1466
     13 N         140.5415  138.0818  163.7519 N.3     1  UNL1       -0.2721
     14 C         140.0613  137.9428  162.3376 C.3     1  UNL1        0.0722
     15 C         141.0196  138.6783  161.4483 C.3     1  UNL1        0.0188
     16 C         142.0920  139.2719  162.3130 C.3     1  UNL1        0.0194
     17 C         141.7965  138.9032  163.7366 C.3     1  UNL1        0.0821
     18 C         139.8824  137.5013  164.9678 C.3     1  UNL1        0.0721
     19 C         138.5783  138.0612  165.4535 C.3     1  UNL1        0.0173
     20 C         138.0251  140.3968  164.4593 C.3     1  UNL1        0.0000
     21 C         138.4164  139.5421  165.6282 C.3     1  UNL1        0.0014
     22 C         139.8498  143.5381  166.0774 C.3     1  UNL1        0.0739
     23 C         139.9788  144.0554  164.6754 C.ar    1  UNL1       -0.0161
     24 C         141.2948  144.5875  164.1904 C.ar    1  UNL1       -0.0030
     25 C         141.4238  145.1048  162.7884 C.ar    1  UNL1        0.0111
     26 C         140.2369  145.0901  161.8713 C.ar    1  UNL1        0.0577
     27 CL        140.3659  145.6075  160.4693 Cl      1  UNL1       -0.0822
     28 C         138.9209  144.5581  162.3563 C.ar    1  UNL1        0.0111
     29 C         138.7919  144.0407  163.7584 C.ar    1  UNL1       -0.0030
@<TRIPOS>BOND
     1    20    21    1
     2    21    19    1
     3    19    18    1
     4    18    13    1
     5    13    14    1
     6    14    15    1
     7    15    16    1
     8    16    17    1
     9    17    12    1
    10    12     1    1
    11     1     2   ar
    12     2     3   ar
    13     3    22    1
    14    22    23    1
    15    23    24   ar
    16    24    25   ar
    17    25    26   ar
    18    26    27    1
    19    26    28   ar
    20    28    29   ar
    21     3     4   ar
    22     4     5   ar
    23     5     6   ar
    24     6     7   ar
    25     7     8   ar
    26     8     9   ar
    27     9    10   ar
    28    10    11    2
    29    17    13    1
    30    10     1   ar
    31    29    23   ar
    32     9     4   ar
