@<TRIPOS>MOLECULE
*****
 21 22 0 0 0
SMALL
GASTEIGER

@<TRIPOS>ATOM
      1 N         140.4599  138.7204  161.5549 N.3     1  UNL1       -0.2711
      2 C         139.2678  137.9402  162.0241 C.3     1  UNL1        0.0939
      3 C         138.8206  138.0406  163.4524 C.3     1  UNL1        0.1123
      4 N         139.5653  138.9212  164.4114 N.am    1  UNL1       -0.2612
      5 C         139.1181  139.0215  165.8396 C.2     1  UNL1        0.3072
      6 O         137.9260  138.2413  166.3088 O.2     1  UNL1       -0.2523
      7 N         139.8629  139.9021  166.7987 N.am    1  UNL1       -0.2640
      8 C         141.0550  140.6824  166.3295 C.3     1  UNL1        0.0949
      9 C         141.7998  141.5630  167.2885 C.3     1  UNL1        0.0216
     10 C         141.3525  141.6634  168.7168 C.3     1  UNL1        0.0034
     11 C         140.1605  140.8831  169.1860 C.3     1  UNL1        0.0216
     12 C         139.4156  140.0025  168.2269 C.3     1  UNL1        0.0949
     13 C         140.7574  139.7014  163.9422 C.3     1  UNL1        0.1123
     14 C         141.2047  139.6010  162.5139 C.3     1  UNL1        0.0939
     15 C         142.0974  142.5440  169.6758 C.3     1  UNL1        0.0001
     16 C         140.8873  143.4200  169.8114 C.3     1  UNL1        0.0000
     17 C         143.3074  141.6681  169.5403 C.3     1  UNL1        0.0000
     18 C         142.8422  143.4246  170.6348 C.3     1  UNL1        0.0000
     19 C         139.8977  138.6790  159.0187 C.3     1  UNL1        0.0173
     20 C         140.9071  138.6201  160.1267 C.3     1  UNL1        0.0577
     21 C         142.3638  138.4608  159.8063 C.3     1  UNL1        0.0173
@<TRIPOS>BOND
     1    19    20    1
     2    20    21    1
     3    20     1    1
     4     1     2    1
     5     2     3    1
     6     3     4    1
     7     4     5   am
     8     5     6    2
     9     5     7   am
    10     7     8    1
    11     8     9    1
    12     9    10    1
    13    10    15    1
    14    15    16    1
    15    15    17    1
    16    15    18    1
    17    10    11    1
    18    11    12    1
    19     4    13    1
    20    13    14    1
    21    14     1    1
    22    12     7    1
@<TRIPOS>MOLECULE
*****
 21 22 0 0 0
SMALL
GASTEIGER

@<TRIPOS>ATOM
      1 N         138.6760  141.0366  161.0989 N.3     1  UNL1       -0.2711
      2 C         137.9635  139.7759  161.4902 C.3     1  UNL1        0.0939
      3 C         137.9989  139.3054  162.9140 C.3     1  UNL1        0.1123
      4 N         138.7468  140.0955  163.9467 N.am    1  UNL1       -0.2612
      5 C         138.7822  139.6250  165.3705 C.2     1  UNL1        0.3072
      6 O         138.0697  138.3644  165.7618 O.2     1  UNL1       -0.2523
      7 N         139.5301  140.4151  166.4031 N.am    1  UNL1       -0.2640
      8 C         140.2426  141.6758  166.0119 C.3     1  UNL1        0.0949
      9 C         140.9905  142.4659  167.0445 C.3     1  UNL1        0.0216
     10 C         141.0259  141.9954  168.4684 C.3     1  UNL1        0.0034
     11 C         140.3134  140.7348  168.8596 C.3     1  UNL1        0.0216
     12 C         139.5655  139.9446  167.8270 C.3     1  UNL1        0.0949
     13 C         139.4593  141.3562  163.5554 C.3     1  UNL1        0.1123
     14 C         139.4239  141.8267  162.1315 C.3     1  UNL1        0.0939
     15 C         141.7739  142.7856  169.5010 C.3     1  UNL1        0.0001
     16 C         143.0344  142.0528  169.1488 C.3     1  UNL1        0.0000
     17 C         140.5134  143.5184  169.8532 C.3     1  UNL1        0.0000
     18 C         142.5218  143.5758  170.5336 C.3     1  UNL1        0.0000
     19 C         138.0464  140.6328  158.6109 C.3     1  UNL1        0.0173
     20 C         138.6406  141.5071  159.6751 C.3     1  UNL1        0.0577
     21 C         139.1994  142.8518  159.3155 C.3     1  UNL1        0.0173
@<TRIPOS>BOND
     1    19    20    1
     2    20    21    1
     3    20     1    1
     4     1     2    1
     5     2     3    1
     6     3     4    1
     7     4     5   am
     8     5     6    2
     9     5     7   am
    10     7     8    1
    11     8     9    1
    12     9    10    1
    13    10    15    1
    14    15    16    1
    15    15    17    1
    16    15    18    1
    17    10    11    1
    18    11    12    1
    19     4    13    1
    20    13    14    1
    21    14     1    1
    22    12     7    1
@<TRIPOS>MOLECULE
*****
 21 22 0 0 0
SMALL
GASTEIGER

@<TRIPOS>ATOM
      1 N         140.9441  143.8384  160.2779 N.3     1  UNL1       -0.2711
      2 C         142.4336  143.6692  160.2285 C.3     1  UNL1        0.0939
      3 C         143.1936  143.3449  161.4804 C.3     1  UNL1        0.1123
      4 N         142.4639  143.1899  162.7818 N.am    1  UNL1       -0.2612
      5 C         143.2239  142.8656  164.0337 C.2     1  UNL1        0.3072
      6 O         144.7135  142.6963  163.9843 O.2     1  UNL1       -0.2523
      7 N         142.4943  142.7105  165.3350 N.am    1  UNL1       -0.2640
      8 C         141.0046  142.8798  165.3845 C.3     1  UNL1        0.0949
      9 C         140.2750  142.7248  166.6859 C.3     1  UNL1        0.0216
     10 C         141.0349  142.4005  167.9378 C.3     1  UNL1        0.0034
     11 C         142.5245  142.2312  167.8884 C.3     1  UNL1        0.0216
     12 C         143.2542  142.3863  166.5870 C.3     1  UNL1        0.0949
     13 C         140.9744  143.3591  162.8312 C.3     1  UNL1        0.1123
     14 C         140.2144  143.6834  161.5792 C.3     1  UNL1        0.0939
     15 C         140.3052  142.2454  169.2392 C.3     1  UNL1        0.0001
     16 C         140.0133  140.8126  168.9049 C.3     1  UNL1        0.0000
     17 C         140.5971  143.6782  169.5735 C.3     1  UNL1        0.0000
     18 C         139.5756  142.0905  170.5405 C.3     1  UNL1        0.0000
     19 C         139.1655  143.1978  158.4957 C.3     1  UNL1        0.0173
     20 C         140.1841  144.1627  159.0260 C.3     1  UNL1        0.0577
     21 C         140.4428  145.4520  158.3043 C.3     1  UNL1        0.0173
@<TRIPOS>BOND
     1    19    20    1
     2    20    21    1
     3    20     1    1
     4     1     2    1
     5     2     3    1
     6     3     4    1
     7     4     5   am
     8     5     6    2
     9     5     7   am
    10     7     8    1
    11     8     9    1
    12     9    10    1
    13    10    15    1
    14    15    16    1
    15    15    17    1
    16    15    18    1
    17    10    11    1
    18    11    12    1
    19     4    13    1
    20    13    14    1
    21    14     1    1
    22    12     7    1
@<TRIPOS>MOLECULE
*****
 21 22 0 0 0
SMALL
GASTEIGER

@<TRIPOS>ATOM
      1 N         143.4137  142.0625  161.2369 N.3     1  UNL1       -0.2711
      2 C         144.2035  140.8022  161.4309 C.3     1  UNL1        0.0939
      3 C         144.1952  140.1092  162.7612 C.3     1  UNL1        0.1123
      4 N         143.3973  140.6766  163.8975 N.am    1  UNL1       -0.2612
      5 C         143.3890  139.9836  165.2278 C.2     1  UNL1        0.3072
      6 O         144.1788  138.7232  165.4218 O.2     1  UNL1       -0.2523
      7 N         142.5911  140.5510  166.3641 N.am    1  UNL1       -0.2640
      8 C         141.8013  141.8114  166.1702 C.3     1  UNL1        0.0949
      9 C         141.0033  142.3788  167.3065 C.3     1  UNL1        0.0216
     10 C         140.9951  141.6858  168.6368 C.3     1  UNL1        0.0034
     11 C         141.7848  140.4254  168.8308 C.3     1  UNL1        0.0216
     12 C         142.5828  139.8580  167.6944 C.3     1  UNL1        0.0949
     13 C         142.6075  141.9369  163.7035 C.3     1  UNL1        0.1123
     14 C         142.6157  142.6299  162.3732 C.3     1  UNL1        0.0939
     15 C         140.1970  142.2533  169.7731 C.3     1  UNL1        0.0001
     16 C         140.9716  143.5342  169.6775 C.3     1  UNL1        0.0000
     17 C         139.4225  140.9723  169.8688 C.3     1  UNL1        0.0000
     18 C         139.3990  142.8207  170.9094 C.3     1  UNL1        0.0000
     19 C         142.3163  143.7037  159.5480 C.3     1  UNL1        0.0173
     20 C         143.4219  142.7555  159.9066 C.3     1  UNL1        0.0577
     21 C         144.5357  142.5004  158.9349 C.3     1  UNL1        0.0173
@<TRIPOS>BOND
     1    19    20    1
     2    20    21    1
     3    20     1    1
     4     1     2    1
     5     2     3    1
     6     3     4    1
     7     4     5   am
     8     5     6    2
     9     5     7   am
    10     7     8    1
    11     8     9    1
    12     9    10    1
    13    10    15    1
    14    15    16    1
    15    15    17    1
    16    15    18    1
    17    10    11    1
    18    11    12    1
    19     4    13    1
    20    13    14    1
    21    14     1    1
    22    12     7    1
@<TRIPOS>MOLECULE
*****
 21 22 0 0 0
SMALL
GASTEIGER

@<TRIPOS>ATOM
      1 N         140.6552  141.9693  168.6288 N.3     1  UNL1       -0.2711
      2 C         139.7199  140.9057  169.1225 C.3     1  UNL1        0.0939
      3 C         139.1842  139.8773  168.1709 C.3     1  UNL1        0.1123
      4 N         139.5838  139.9127  166.7256 N.am    1  UNL1       -0.2612
      5 C         139.0480  138.8844  165.7739 C.2     1  UNL1        0.3072
      6 O         138.1127  137.8207  166.2676 O.2     1  UNL1       -0.2523
      7 N         139.4476  138.9197  164.3286 N.am    1  UNL1       -0.2640
      8 C         140.3830  139.9834  163.8348 C.3     1  UNL1        0.0949
      9 C         140.7826  140.0187  162.3895 C.3     1  UNL1        0.0216
     10 C         140.2469  138.9904  161.4379 C.3     1  UNL1        0.0034
     11 C         139.3116  137.9268  161.9316 C.3     1  UNL1        0.0216
     12 C         138.9119  137.8914  163.3770 C.3     1  UNL1        0.0949
     13 C         140.5191  140.9763  166.2319 C.3     1  UNL1        0.1123
     14 C         141.0548  142.0046  167.1835 C.3     1  UNL1        0.0939
     15 C         140.6465  139.0258  159.9925 C.3     1  UNL1        0.0001
     16 C         139.2015  138.9890  159.5920 C.3     1  UNL1        0.0000
     17 C         142.0916  139.0625  160.3930 C.3     1  UNL1        0.0000
     18 C         141.0462  139.0611  158.5472 C.3     1  UNL1        0.0000
     19 C         142.5662  142.8404  170.1582 C.3     1  UNL1        0.0173
     20 C         141.1910  142.9976  169.5804 C.3     1  UNL1        0.0577
     21 C         140.3514  144.1830  169.9543 C.3     1  UNL1        0.0173
@<TRIPOS>BOND
     1    19    20    1
     2    20    21    1
     3    20     1    1
     4     1     2    1
     5     2     3    1
     6     3     4    1
     7     4     5   am
     8     5     6    2
     9     5     7   am
    10     7     8    1
    11     8     9    1
    12     9    10    1
    13    10    15    1
    14    15    16    1
    15    15    17    1
    16    15    18    1
    17    10    11    1
    18    11    12    1
    19     4    13    1
    20    13    14    1
    21    14     1    1
    22    12     7    1
@<TRIPOS>MOLECULE
*****
 21 22 0 0 0
SMALL
GASTEIGER

@<TRIPOS>ATOM
      1 N         142.5939  137.9712  156.4681 N.3     1  UNL1       -0.2711
      2 C         141.4765  138.6276  155.7128 C.3     1  UNL1        0.0939
      3 C         140.2824  139.1571  156.4501 C.3     1  UNL1        0.1123
      4 N         140.2056  139.0302  157.9427 N.am    1  UNL1       -0.2612
      5 C         139.0115  139.5597  158.6800 C.2     1  UNL1        0.3072
      6 O         137.8941  140.2161  157.9247 O.2     1  UNL1       -0.2523
      7 N         138.9347  139.4329  160.1726 N.am    1  UNL1       -0.2640
      8 C         140.0522  138.7765  160.9280 C.3     1  UNL1        0.0949
      9 C         139.9754  138.6496  162.4206 C.3     1  UNL1        0.0216
     10 C         138.7813  139.1791  163.1579 C.3     1  UNL1        0.0034
     11 C         137.6639  139.8355  162.4026 C.3     1  UNL1        0.0216
     12 C         137.7406  139.9624  160.9099 C.3     1  UNL1        0.0949
     13 C         141.3230  138.3738  158.6980 C.3     1  UNL1        0.1123
     14 C         142.5172  137.8443  157.9607 C.3     1  UNL1        0.0939
     15 C         138.7045  139.0522  164.6506 C.3     1  UNL1        0.0001
     16 C         138.1959  140.4602  164.7442 C.3     1  UNL1        0.0000
     17 C         139.2132  137.6443  164.5570 C.3     1  UNL1        0.0000
     18 C         138.6279  138.9253  166.1433 C.3     1  UNL1        0.0000
     19 C         144.7571  138.3919  155.0919 C.3     1  UNL1        0.0173
     20 C         143.7881  137.4417  155.7308 C.3     1  UNL1        0.0577
     21 C         144.0132  135.9620  155.6323 C.3     1  UNL1        0.0173
@<TRIPOS>BOND
     1    19    20    1
     2    20    21    1
     3    20     1    1
     4     1     2    1
     5     2     3    1
     6     3     4    1
     7     4     5   am
     8     5     6    2
     9     5     7   am
    10     7     8    1
    11     8     9    1
    12     9    10    1
    13    10    15    1
    14    15    16    1
    15    15    17    1
    16    15    18    1
    17    10    11    1
    18    11    12    1
    19     4    13    1
    20    13    14    1
    21    14     1    1
    22    12     7    1
@<TRIPOS>MOLECULE
*****
 21 22 0 0 0
SMALL
GASTEIGER

@<TRIPOS>ATOM
      1 N         139.5118  143.2605  159.8468 N.3     1  UNL1       -0.2711
      2 C         138.5939  142.0742  159.8488 C.3     1  UNL1        0.0939
      3 C         138.3724  141.2995  161.1140 C.3     1  UNL1        0.1123
      4 N         139.0689  141.7110  162.3771 N.am    1  UNL1       -0.2612
      5 C         138.8474  140.9362  163.6423 C.2     1  UNL1        0.3072
      6 O         137.9295  139.7499  163.6443 O.2     1  UNL1       -0.2523
      7 N         139.5439  141.3477  164.9054 N.am    1  UNL1       -0.2640
      8 C         140.4619  142.5341  164.9034 C.3     1  UNL1        0.0949
      9 C         141.1583  142.9456  166.1665 C.3     1  UNL1        0.0216
     10 C         140.9369  142.1708  167.4317 C.3     1  UNL1        0.0034
     11 C         140.0189  140.9845  167.4338 C.3     1  UNL1        0.0216
     12 C         139.3224  140.5729  166.1706 C.3     1  UNL1        0.0949
     13 C         139.9868  142.8973  162.3751 C.3     1  UNL1        0.1123
     14 C         140.2083  143.6721  161.1099 C.3     1  UNL1        0.0939
     15 C         141.6334  142.5824  168.6949 C.3     1  UNL1        0.0001
     16 C         142.9196  142.0166  168.1701 C.3     1  UNL1        0.0000
     17 C         140.3472  143.1482  169.2197 C.3     1  UNL1        0.0000
     18 C         142.3298  142.9940  169.9580 C.3     1  UNL1        0.0000
     19 C         140.3566  145.3986  158.6363 C.3     1  UNL1        0.0173
     20 C         139.7333  144.0353  158.5816 C.3     1  UNL1        0.0577
     21 C         139.3314  143.4469  157.2617 C.3     1  UNL1        0.0173
@<TRIPOS>BOND
     1    19    20    1
     2    20    21    1
     3    20     1    1
     4     1     2    1
     5     2     3    1
     6     3     4    1
     7     4     5   am
     8     5     6    2
     9     5     7   am
    10     7     8    1
    11     8     9    1
    12     9    10    1
    13    10    15    1
    14    15    16    1
    15    15    17    1
    16    15    18    1
    17    10    11    1
    18    11    12    1
    19     4    13    1
    20    13    14    1
    21    14     1    1
    22    12     7    1
@<TRIPOS>MOLECULE
*****
 21 22 0 0 0
SMALL
GASTEIGER

@<TRIPOS>ATOM
      1 N         143.1418  138.3047  157.6665 N.3     1  UNL1       -0.2711
      2 C         143.7083  139.6579  157.3535 C.3     1  UNL1        0.0939
      3 C         144.0121  140.6190  158.4643 C.3     1  UNL1        0.1123
      4 N         143.7495  140.2270  159.8881 N.am    1  UNL1       -0.2612
      5 C         144.0533  141.1881  160.9989 C.2     1  UNL1        0.3072
      6 O         144.6198  142.5413  160.6859 O.2     1  UNL1       -0.2523
      7 N         143.7907  140.7961  162.4227 N.am    1  UNL1       -0.2640
      8 C         143.2242  139.4429  162.7358 C.3     1  UNL1        0.0949
      9 C         142.9616  139.0509  164.1596 C.3     1  UNL1        0.0216
     10 C         143.2655  140.0120  165.2704 C.3     1  UNL1        0.0034
     11 C         143.8319  141.3652  164.9574 C.3     1  UNL1        0.0216
     12 C         144.0946  141.7573  163.5335 C.3     1  UNL1        0.0949
     13 C         143.1831  138.8738  160.2011 C.3     1  UNL1        0.1123
     14 C         142.8792  137.9127  159.0903 C.3     1  UNL1        0.0939
     15 C         143.0028  139.6199  166.6943 C.3     1  UNL1        0.0001
     16 C         143.5754  138.2598  166.4255 C.3     1  UNL1        0.0000
     17 C         142.4302  140.9800  166.9632 C.3     1  UNL1        0.0000
     18 C         142.7402  139.2279  168.1181 C.3     1  UNL1        0.0000
     19 C         143.9192  136.9375  155.5986 C.3     1  UNL1        0.0173
     20 C         142.8380  137.3436  156.5557 C.3     1  UNL1        0.0577
     21 C         141.4530  136.7886  156.4020 C.3     1  UNL1        0.0173
@<TRIPOS>BOND
     1    19    20    1
     2    20    21    1
     3    20     1    1
     4     1     2    1
     5     2     3    1
     6     3     4    1
     7     4     5   am
     8     5     6    2
     9     5     7   am
    10     7     8    1
    11     8     9    1
    12     9    10    1
    13    10    15    1
    14    15    16    1
    15    15    17    1
    16    15    18    1
    17    10    11    1
    18    11    12    1
    19     4    13    1
    20    13    14    1
    21    14     1    1
    22    12     7    1
@<TRIPOS>MOLECULE
*****
 21 22 0 0 0
SMALL
GASTEIGER

@<TRIPOS>ATOM
      1 N         143.5263  141.9747  161.0537 N.3     1  UNL1       -0.2711
      2 C         144.6389  142.8142  161.6081 C.3     1  UNL1        0.0939
      3 C         144.6987  143.1040  163.0786 C.3     1  UNL1        0.1123
      4 N         143.6459  142.5543  163.9948 N.am    1  UNL1       -0.2612
      5 C         143.7056  142.8441  165.4653 C.2     1  UNL1        0.3072
      6 O         144.8182  143.6836  166.0196 O.2     1  UNL1       -0.2523
      7 N         142.6528  142.2944  166.3814 N.am    1  UNL1       -0.2640
      8 C         141.5402  141.4548  165.8271 C.3     1  UNL1        0.0949
      9 C         140.4874  140.9051  166.7432 C.3     1  UNL1        0.0216
     10 C         140.5471  141.1949  168.2138 C.3     1  UNL1        0.0034
     11 C         141.6597  142.0344  168.7681 C.3     1  UNL1        0.0216
     12 C         142.7126  142.5842  167.8520 C.3     1  UNL1        0.0949
     13 C         142.5333  141.7148  163.4404 C.3     1  UNL1        0.1123
     14 C         142.4735  141.4250  161.9699 C.3     1  UNL1        0.0939
     15 C         139.4943  140.6452  169.1299 C.3     1  UNL1        0.0001
     16 C         139.9309  141.5976  170.2033 C.3     1  UNL1        0.0000
     17 C         139.0576  139.6927  168.0565 C.3     1  UNL1        0.0000
     18 C         138.4414  140.0954  170.0460 C.3     1  UNL1        0.0000
     19 C         144.3168  142.4700  158.6289 C.3     1  UNL1        0.0173
     20 C         143.4666  141.6849  159.5832 C.3     1  UNL1        0.0577
     21 C         142.5566  140.6100  159.0670 C.3     1  UNL1        0.0173
@<TRIPOS>BOND
     1    19    20    1
     2    20    21    1
     3    20     1    1
     4     1     2    1
     5     2     3    1
     6     3     4    1
     7     4     5   am
     8     5     6    2
     9     5     7   am
    10     7     8    1
    11     8     9    1
    12     9    10    1
    13    10    15    1
    14    15    16    1
    15    15    17    1
    16    15    18    1
    17    10    11    1
    18    11    12    1
    19     4    13    1
    20    13    14    1
    21    14     1    1
    22    12     7    1
