@<TRIPOS>MOLECULE
*****
 38 40 0 0 0
SMALL
GASTEIGER

@<TRIPOS>ATOM
      1 C         139.7016  143.9453  157.8393 C.3     1  UNL1        0.0577
      2 C         140.2386  145.2234  158.4121 C.3     1  UNL1        0.0177
      3 C         140.4373  145.3565  159.8929 C.3     1  UNL1        0.0211
      4 C         140.0990  144.2116  160.8009 C.3     1  UNL1        0.0752
      5 C         139.5620  142.9335  160.2281 C.3     1  UNL1        0.0630
      6 C         139.3633  142.8004  158.7473 C.3     1  UNL1        0.0213
      7 N         140.2976  144.3447  162.2817 N.am    1  UNL1       -0.3045
      8 C         139.1365  144.6904  163.1661 C.2     1  UNL1        0.2425
      9 O         137.7766  144.9031  162.5697 O.2     1  UNL1       -0.2733
     10 H         141.1901  144.2051  162.6732 H       1  UNL1        0.1494
     11 C         139.3352  144.8235  164.6469 C.3     1  UNL1        0.1759
     12 N         139.6958  143.6200  165.4665 N.am    1  UNL1       -0.2931
     13 C         141.1060  143.1088  165.4680 C.2     1  UNL1        0.2462
     14 O         142.1556  143.8012  164.6500 O.2     1  UNL1       -0.2701
     15 H         139.0069  143.1656  166.0033 H       1  UNL1        0.1502
     16 C         141.4666  141.9054  166.2875 C.ar    1  UNL1        0.0533
     17 C         142.6299  141.0469  165.8876 C.ar    1  UNL1        0.0045
     18 C         142.9905  139.8434  166.7072 C.ar    1  UNL1        0.0001
     19 C         142.1879  139.4984  167.9265 C.ar    1  UNL1        0.0039
     20 C         141.0246  140.3569  168.3263 C.ar    1  UNL1        0.0716
     21 C         140.6640  141.5603  167.5068 C.ar    1  UNL1        0.0084
     22 C         140.2220  140.0119  169.5456 C.3     1  UNL1        0.4186
     23 F         139.4193  139.6669  170.7650 F       1  UNL1       -0.1659
     24 F         139.0169  140.6660  168.9374 F       1  UNL1       -0.1659
     25 F         141.4271  139.3578  170.1538 F       1  UNL1       -0.1659
     26 N         139.5030  143.8122  156.3585 N.3     1  UNL1       -0.2741
     27 C         140.5329  143.1106  155.5237 C.3     1  UNL1        0.0896
     28 C         138.2573  145.8116  155.2627 C.3     1  UNL1        0.0173
     29 C         138.2744  144.3807  155.7125 C.3     1  UNL1        0.0576
     30 C         137.0629  143.5182  155.5162 C.3     1  UNL1        0.0173
     31 C         139.2236  141.7884  161.1362 C.3     1  UNL1        0.2070
     32 O         140.2655  141.2305  162.0598 O.3     1  UNL1       -0.4754
     33 C         139.8563  140.3792  163.2252 C.ar    1  UNL1        0.1386
     34 C         140.6562  139.1615  163.5819 C.ar    1  UNL1        0.0369
     35 C         140.2470  138.3103  164.7472 C.ar    1  UNL1        0.0031
     36 C         139.0380  138.6769  165.5558 C.ar    1  UNL1        0.0002
     37 C         138.2381  139.8946  165.1991 C.ar    1  UNL1        0.0031
     38 C         138.6473  140.7458  164.0338 C.ar    1  UNL1        0.0369
@<TRIPOS>BOND
     1    28    29    1
     2    29    30    1
     3    29    26    1
     4    26    27    1
     5     1    26    1
     6     1     2    1
     7     2     3    1
     8     3     4    1
     9     4     7    1
    10     7     8   am
    11     8     9    2
    12     8    11    1
    13    11    12    1
    14    12    13   am
    15    13    14    2
    16    13    16    1
    17    16    17   ar
    18    17    18   ar
    19    18    19   ar
    20    19    20   ar
    21    20    22    1
    22    22    23    1
    23    22    24    1
    24    22    25    1
    25    20    21   ar
    26     4     5    1
    27     5    31    1
    28    31    32    1
    29    32    33    1
    30    33    34   ar
    31    34    35   ar
    32    35    36   ar
    33    36    37   ar
    34    37    38   ar
    35     5     6    1
    36     6     1    1
    37    21    16   ar
    38    38    33   ar
    39     7    10    1
    40    12    15    1
@<TRIPOS>MOLECULE
*****
 38 40 0 0 0
SMALL
GASTEIGER

@<TRIPOS>ATOM
      1 C         139.3104  143.2697  157.8201 C.3     1  UNL1        0.0577
      2 C         139.9434  144.5264  158.3398 C.3     1  UNL1        0.0177
      3 C         140.1840  144.6920  159.8111 C.3     1  UNL1        0.0211
      4 C         139.7917  143.6009  160.7627 C.3     1  UNL1        0.0752
      5 C         139.1587  142.3443  160.2430 C.3     1  UNL1        0.0630
      6 C         138.9180  142.1787  158.7718 C.3     1  UNL1        0.0213
      7 N         140.0324  143.7665  162.2340 N.am    1  UNL1       -0.3045
      8 C         139.0400  144.5109  163.0772 C.2     1  UNL1        0.2425
      9 O         137.8069  145.0897  162.4491 O.2     1  UNL1       -0.2733
     10 H         140.8417  143.3866  162.6462 H       1  UNL1        0.1494
     11 C         139.2807  144.6764  164.5485 C.3     1  UNL1        0.1759
     12 N         139.6647  143.4911  165.3837 N.am    1  UNL1       -0.2931
     13 C         141.0854  143.0101  165.3948 C.2     1  UNL1        0.2462
     14 O         142.1222  143.7145  164.5708 O.2     1  UNL1       -0.2701
     15 H         138.9842  143.0288  165.9245 H       1  UNL1        0.1502
     16 C         141.4695  141.8248  166.2300 C.ar    1  UNL1        0.0533
     17 C         142.5469  140.8933  165.7595 C.ar    1  UNL1        0.0045
     18 C         142.9309  139.7079  166.5948 C.ar    1  UNL1        0.0001
     19 C         142.2375  139.4542  167.9004 C.ar    1  UNL1        0.0039
     20 C         141.1601  140.3858  168.3709 C.ar    1  UNL1        0.0716
     21 C         140.7761  141.5711  167.5358 C.ar    1  UNL1        0.0084
     22 C         140.4668  140.1321  169.6766 C.3     1  UNL1        0.4186
     23 F         139.7734  139.8783  170.9824 F       1  UNL1       -0.1659
     24 F         141.7904  140.1457  170.3821 F       1  UNL1       -0.1659
     25 F         139.1431  140.1184  168.9711 F       1  UNL1       -0.1659
     26 N         139.0697  143.1042  156.3489 N.3     1  UNL1       -0.2741
     27 C         140.1899  142.6727  155.4495 C.3     1  UNL1        0.0896
     28 C         136.6353  142.3273  155.8796 C.3     1  UNL1        0.0173
     29 C         137.7088  143.3700  155.7769 C.3     1  UNL1        0.0576
     30 C         137.4212  144.6785  155.1022 C.3     1  UNL1        0.0173
     31 C         138.7663  141.2531  161.1947 C.3     1  UNL1        0.2070
     32 O         139.8217  140.5033  161.9523 O.3     1  UNL1       -0.4754
     33 C         139.4978  139.8920  163.2833 C.ar    1  UNL1        0.1386
     34 C         138.4263  140.4929  164.1439 C.ar    1  UNL1        0.0369
     35 C         138.1025  139.8815  165.4748 C.ar    1  UNL1        0.0031
     36 C         138.8503  138.6692  165.9451 C.ar    1  UNL1        0.0002
     37 C         139.9218  138.0683  165.0845 C.ar    1  UNL1        0.0031
     38 C         140.2456  138.6797  163.7536 C.ar    1  UNL1        0.0369
@<TRIPOS>BOND
     1    28    29    1
     2    29    30    1
     3    29    26    1
     4    26    27    1
     5     1    26    1
     6     1     2    1
     7     2     3    1
     8     3     4    1
     9     4     7    1
    10     7     8   am
    11     8     9    2
    12     8    11    1
    13    11    12    1
    14    12    13   am
    15    13    14    2
    16    13    16    1
    17    16    17   ar
    18    17    18   ar
    19    18    19   ar
    20    19    20   ar
    21    20    22    1
    22    22    23    1
    23    22    24    1
    24    22    25    1
    25    20    21   ar
    26     4     5    1
    27     5    31    1
    28    31    32    1
    29    32    33    1
    30    33    34   ar
    31    34    35   ar
    32    35    36   ar
    33    36    37   ar
    34    37    38   ar
    35     5     6    1
    36     6     1    1
    37    21    16   ar
    38    38    33   ar
    39     7    10    1
    40    12    15    1
@<TRIPOS>MOLECULE
*****
 38 40 0 0 0
SMALL
GASTEIGER

@<TRIPOS>ATOM
      1 C         143.5494  142.5090  157.4911 C.3     1  UNL1        0.0577
      2 C         142.8156  143.7996  157.7046 C.3     1  UNL1        0.0177
      3 C         142.1952  144.0981  159.0373 C.3     1  UNL1        0.0211
      4 C         142.3087  143.1059  160.1565 C.3     1  UNL1        0.0752
      5 C         143.0425  141.8152  159.9429 C.3     1  UNL1        0.0630
      6 C         143.6629  141.5168  158.6102 C.3     1  UNL1        0.0213
      7 N         141.6884  143.4044  161.4892 N.am    1  UNL1       -0.3045
      8 C         142.4776  144.1301  162.5382 C.2     1  UNL1        0.2425
      9 O         143.8873  144.5573  162.2545 O.2     1  UNL1       -0.2733
     10 H         140.7632  143.1240  161.6754 H       1  UNL1        0.1494
     11 C         141.8573  144.4285  163.8709 C.3     1  UNL1        0.1759
     12 N         141.4135  143.3049  164.7601 N.am    1  UNL1       -0.2931
     13 C         140.0834  142.6495  164.5333 C.2     1  UNL1        0.2462
     14 O         139.1972  143.1177  163.4172 O.2     1  UNL1       -0.2701
     15 H         141.9951  142.9976  165.4925 H       1  UNL1        0.1502
     16 C         139.6396  141.5259  165.4224 C.ar    1  UNL1        0.0533
     17 C         138.6977  140.4825  164.8990 C.ar    1  UNL1        0.0045
     18 C         138.2539  139.3589  165.7882 C.ar    1  UNL1        0.0001
     19 C         138.7520  139.2788  167.2008 C.ar    1  UNL1        0.0039
     20 C         139.6939  140.3222  167.7242 C.ar    1  UNL1        0.0716
     21 C         140.1378  141.4458  166.8351 C.ar    1  UNL1        0.0084
     22 C         140.1921  140.2421  169.1368 C.3     1  UNL1        0.4186
     23 F         140.6902  140.1620  170.5494 F       1  UNL1       -0.1659
     24 F         138.9717  140.9754  169.6087 F       1  UNL1       -0.1659
     25 F         141.4125  139.5088  168.6648 F       1  UNL1       -0.1659
     26 N         144.1697  142.2105  156.1584 N.3     1  UNL1       -0.2741
     27 C         143.4297  142.5401  154.8960 C.3     1  UNL1        0.0896
     28 C         145.6892  140.1979  155.5334 C.3     1  UNL1        0.0173
     29 C         145.5301  141.5825  156.0881 C.3     1  UNL1        0.0576
     30 C         146.7314  142.3390  156.5725 C.3     1  UNL1        0.0173
     31 C         143.1560  140.8230  161.0622 C.3     1  UNL1        0.2070
     32 O         141.9603  140.5114  161.9124 O.3     1  UNL1       -0.4754
     33 C         142.1350  139.7954  163.2189 C.ar    1  UNL1        0.1386
     34 C         143.0574  140.3529  164.2621 C.ar    1  UNL1        0.0369
     35 C         143.2321  139.6370  165.5686 C.ar    1  UNL1        0.0031
     36 C         142.4843  138.3636  165.8319 C.ar    1  UNL1        0.0002
     37 C         141.5618  137.8061  164.7887 C.ar    1  UNL1        0.0031
     38 C         141.3872  138.5220  163.4822 C.ar    1  UNL1        0.0369
@<TRIPOS>BOND
     1    28    29    1
     2    29    30    1
     3    29    26    1
     4    26    27    1
     5     1    26    1
     6     1     2    1
     7     2     3    1
     8     3     4    1
     9     4     7    1
    10     7     8   am
    11     8     9    2
    12     8    11    1
    13    11    12    1
    14    12    13   am
    15    13    14    2
    16    13    16    1
    17    16    17   ar
    18    17    18   ar
    19    18    19   ar
    20    19    20   ar
    21    20    22    1
    22    22    23    1
    23    22    24    1
    24    22    25    1
    25    20    21   ar
    26     4     5    1
    27     5    31    1
    28    31    32    1
    29    32    33    1
    30    33    34   ar
    31    34    35   ar
    32    35    36   ar
    33    36    37   ar
    34    37    38   ar
    35     5     6    1
    36     6     1    1
    37    21    16   ar
    38    38    33   ar
    39     7    10    1
    40    12    15    1
@<TRIPOS>MOLECULE
*****
 38 40 0 0 0
SMALL
GASTEIGER

@<TRIPOS>ATOM
      1 C         139.1608  143.3074  157.2578 C.3     1  UNL1        0.0577
      2 C         140.1273  144.4400  157.4399 C.3     1  UNL1        0.0177
      3 C         140.7236  144.7073  158.7901 C.3     1  UNL1        0.0211
      4 C         140.3533  143.8422  159.9581 C.3     1  UNL1        0.0752
      5 C         139.3868  142.7097  159.7760 C.3     1  UNL1        0.0630
      6 C         138.7905  142.4423  158.4258 C.3     1  UNL1        0.0213
      7 N         140.9496  144.1095  161.3083 N.am    1  UNL1       -0.3045
      8 C         140.2645  145.0461  162.2587 C.2     1  UNL1        0.2425
      9 O         138.9829  145.7154  161.8589 O.2     1  UNL1       -0.2733
     10 H         141.7907  143.6703  161.5707 H       1  UNL1        0.1494
     11 C         140.8608  145.3135  163.6088 C.3     1  UNL1        0.1759
     12 N         140.7400  144.2894  164.6982 N.am    1  UNL1       -0.2931
     13 C         141.6749  143.1169  164.7323 C.2     1  UNL1        0.2462
     14 O         142.7307  142.9685  163.6770 O.2     1  UNL1       -0.2701
     15 H         140.0471  144.3867  165.3908 H       1  UNL1        0.1502
     16 C         141.5542  142.0928  165.8216 C.ar    1  UNL1        0.0533
     17 C         140.5367  142.2711  166.9093 C.ar    1  UNL1        0.0045
     18 C         140.4160  141.2469  167.9986 C.ar    1  UNL1        0.0001
     19 C         141.3127  140.0445  168.0002 C.ar    1  UNL1        0.0039
     20 C         142.3301  139.8662  166.9125 C.ar    1  UNL1        0.0716
     21 C         142.4509  140.8903  165.8232 C.ar    1  UNL1        0.0084
     22 C         143.2268  138.6637  166.9141 C.3     1  UNL1        0.4186
     23 F         144.1236  137.4612  166.9157 F       1  UNL1       -0.1659
     24 F         143.4308  138.8139  165.4357 F       1  UNL1       -0.1659
     25 F         143.0228  138.5136  168.3926 F       1  UNL1       -0.1659
     26 N         138.5645  143.0401  155.9076 N.3     1  UNL1       -0.2741
     27 C         137.9633  141.6995  155.6053 C.3     1  UNL1        0.0896
     28 C         139.5459  144.0473  153.7231 C.3     1  UNL1        0.0173
     29 C         138.5694  144.1133  154.8597 C.3     1  UNL1        0.0576
     30 C         137.5976  145.2526  154.9484 C.3     1  UNL1        0.0173
     31 C         139.0165  141.8444  160.9441 C.3     1  UNL1        0.2070
     32 O         140.0854  141.3126  161.8521 O.3     1  UNL1       -0.4754
     33 C         139.7153  140.4455  163.0189 C.ar    1  UNL1        0.1386
     34 C         138.6124  140.8649  163.9449 C.ar    1  UNL1        0.0369
     35 C         138.2423  139.9978  165.1116 C.ar    1  UNL1        0.0031
     36 C         138.9753  138.7114  165.3523 C.ar    1  UNL1        0.0002
     37 C         140.0783  138.2921  164.4263 C.ar    1  UNL1        0.0031
     38 C         140.4483  139.1591  163.2596 C.ar    1  UNL1        0.0369
@<TRIPOS>BOND
     1    28    29    1
     2    29    30    1
     3    29    26    1
     4    26    27    1
     5     1    26    1
     6     1     2    1
     7     2     3    1
     8     3     4    1
     9     4     7    1
    10     7     8   am
    11     8     9    2
    12     8    11    1
    13    11    12    1
    14    12    13   am
    15    13    14    2
    16    13    16    1
    17    16    17   ar
    18    17    18   ar
    19    18    19   ar
    20    19    20   ar
    21    20    22    1
    22    22    23    1
    23    22    24    1
    24    22    25    1
    25    20    21   ar
    26     4     5    1
    27     5    31    1
    28    31    32    1
    29    32    33    1
    30    33    34   ar
    31    34    35   ar
    32    35    36   ar
    33    36    37   ar
    34    37    38   ar
    35     5     6    1
    36     6     1    1
    37    21    16   ar
    38    38    33   ar
    39     7    10    1
    40    12    15    1
@<TRIPOS>MOLECULE
*****
 38 40 0 0 0
SMALL
GASTEIGER

@<TRIPOS>ATOM
      1 C         139.2414  143.5134  157.6242 C.3     1  UNL1        0.0577
      2 C         140.0859  144.7206  157.9061 C.3     1  UNL1        0.0177
      3 C         140.4969  145.0364  159.3137 C.3     1  UNL1        0.0211
      4 C         140.0634  144.1449  160.4394 C.3     1  UNL1        0.0752
      5 C         139.2189  142.9377  160.1576 C.3     1  UNL1        0.0630
      6 C         138.8079  142.6220  158.7500 C.3     1  UNL1        0.0213
      7 N         140.4744  144.4607  161.8471 N.am    1  UNL1       -0.3045
      8 C         141.9291  144.5550  162.2004 C.2     1  UNL1        0.2425
      9 O         142.9729  144.3335  161.1461 O.2     1  UNL1       -0.2733
     10 H         139.7893  144.6060  162.5390 H       1  UNL1        0.1494
     11 C         142.3401  144.8707  163.6080 C.3     1  UNL1        0.1759
     12 N         142.3986  143.7790  164.6350 N.am    1  UNL1       -0.2931
     13 C         141.1471  143.3415  165.3367 C.2     1  UNL1        0.2462
     14 O         139.8370  143.9957  165.0112 O.2     1  UNL1       -0.2701
     15 H         143.2584  143.3496  164.8486 H       1  UNL1        0.1502
     16 C         141.2056  142.2498  166.3636 C.ar    1  UNL1        0.0533
     17 C         140.3647  142.3397  167.6025 C.ar    1  UNL1        0.0045
     18 C         140.4232  141.2479  168.6295 C.ar    1  UNL1        0.0001
     19 C         141.3225  140.0663  168.4177 C.ar    1  UNL1        0.0039
     20 C         142.1634  139.9764  167.1788 C.ar    1  UNL1        0.0716
     21 C         142.1050  141.0681  166.1518 C.ar    1  UNL1        0.0084
     22 C         143.0628  138.7949  166.9669 C.3     1  UNL1        0.4186
     23 F         143.9622  137.6132  166.7550 F       1  UNL1       -0.1659
     24 F         143.1000  139.0869  165.4961 F       1  UNL1       -0.1659
     25 F         143.0256  138.5028  168.4377 F       1  UNL1       -0.1659
     26 N         138.8304  143.1976  156.2166 N.3     1  UNL1       -0.2741
     27 C         138.3784  141.8125  155.8601 C.3     1  UNL1        0.0896
     28 C         140.0369  144.3498  154.2250 C.3     1  UNL1        0.0173
     29 C         138.8714  144.2670  155.1655 C.3     1  UNL1        0.0576
     30 C         137.7468  145.2535  155.0550 C.3     1  UNL1        0.0173
     31 C         138.7854  142.0462  161.2834 C.3     1  UNL1        0.2070
     32 O         139.6390  141.9183  162.5102 O.3     1  UNL1       -0.4754
     33 C         139.4341  140.7672  163.4498 C.ar    1  UNL1        0.1386
     34 C         140.2321  139.5086  163.2792 C.ar    1  UNL1        0.0369
     35 C         140.0272  138.3575  164.2189 C.ar    1  UNL1        0.0031
     36 C         139.0242  138.4649  165.3290 C.ar    1  UNL1        0.0002
     37 C         138.2262  139.7235  165.4996 C.ar    1  UNL1        0.0031
     38 C         138.4311  140.8746  164.5600 C.ar    1  UNL1        0.0369
@<TRIPOS>BOND
     1    28    29    1
     2    29    30    1
     3    29    26    1
     4    26    27    1
     5     1    26    1
     6     1     2    1
     7     2     3    1
     8     3     4    1
     9     4     7    1
    10     7     8   am
    11     8     9    2
    12     8    11    1
    13    11    12    1
    14    12    13   am
    15    13    14    2
    16    13    16    1
    17    16    17   ar
    18    17    18   ar
    19    18    19   ar
    20    19    20   ar
    21    20    22    1
    22    22    23    1
    23    22    24    1
    24    22    25    1
    25    20    21   ar
    26     4     5    1
    27     5    31    1
    28    31    32    1
    29    32    33    1
    30    33    34   ar
    31    34    35   ar
    32    35    36   ar
    33    36    37   ar
    34    37    38   ar
    35     5     6    1
    36     6     1    1
    37    21    16   ar
    38    38    33   ar
    39     7    10    1
    40    12    15    1
@<TRIPOS>MOLECULE
*****
 38 40 0 0 0
SMALL
GASTEIGER

@<TRIPOS>ATOM
      1 C         141.0474  145.5735  156.2588 C.3     1  UNL1        0.0577
      2 C         142.3565  144.8561  156.1116 C.3     1  UNL1        0.0177
      3 C         142.9759  144.1751  157.2959 C.3     1  UNL1        0.0211
      4 C         142.2862  144.2115  158.6274 C.3     1  UNL1        0.0752
      5 C         140.9772  144.9288  158.7747 C.3     1  UNL1        0.0630
      6 C         140.3578  145.6098  157.5903 C.3     1  UNL1        0.0213
      7 N         142.9056  143.5304  159.8118 N.am    1  UNL1       -0.3045
      8 C         142.9353  142.0326  159.8848 C.2     1  UNL1        0.2425
      9 O         142.3456  141.2156  158.7736 O.2     1  UNL1       -0.2733
     10 H         143.2927  144.0666  160.5411 H       1  UNL1        0.1494
     11 C         143.5547  141.3516  161.0691 C.3     1  UNL1        0.1759
     12 N         142.7112  141.0025  162.2595 N.am    1  UNL1       -0.2931
     13 C         142.3279  142.0664  163.2449 C.2     1  UNL1        0.2462
     14 O         142.7880  143.4793  163.0401 O.2     1  UNL1       -0.2701
     15 H         142.4093  140.0751  162.3939 H       1  UNL1        0.1502
     16 C         141.4845  141.7173  164.4352 C.ar    1  UNL1        0.0533
     17 C         141.4411  142.6371  165.6193 C.ar    1  UNL1        0.0045
     18 C         140.5976  142.2880  166.8096 C.ar    1  UNL1        0.0001
     19 C         139.7976  141.0192  166.8158 C.ar    1  UNL1        0.0039
     20 C         139.8410  140.0995  165.6317 C.ar    1  UNL1        0.0716
     21 C         140.6844  140.4485  164.4414 C.ar    1  UNL1        0.0084
     22 C         139.0409  138.8307  165.6378 C.3     1  UNL1        0.4186
     23 F         138.2409  137.5618  165.6440 F       1  UNL1       -0.1659
     24 F         140.2830  138.0461  165.3351 F       1  UNL1       -0.1659
     25 F         137.7989  139.6153  165.9405 F       1  UNL1       -0.1659
     26 N         140.4280  146.2545  155.0745 N.3     1  UNL1       -0.2741
     27 C         141.2042  146.3932  153.7985 C.3     1  UNL1        0.0896
     28 C         137.8587  145.8828  154.9745 C.3     1  UNL1        0.0173
     29 C         139.0325  146.7967  155.1663 C.3     1  UNL1        0.0576
     30 C         138.8109  148.2530  155.4498 C.3     1  UNL1        0.0173
     31 C         140.2874  144.9651  160.1062 C.3     1  UNL1        0.2070
     32 O         139.9698  143.6855  160.8215 O.3     1  UNL1       -0.4754
     33 C         139.2783  143.7218  162.1522 C.ar    1  UNL1        0.1386
     34 C         139.5368  144.8543  163.1011 C.ar    1  UNL1        0.0369
     35 C         138.8452  144.8906  164.4317 C.ar    1  UNL1        0.0031
     36 C         137.8952  143.7943  164.8133 C.ar    1  UNL1        0.0002
     37 C         137.6367  142.6618  163.8643 C.ar    1  UNL1        0.0031
     38 C         138.3282  142.6255  162.5338 C.ar    1  UNL1        0.0369
@<TRIPOS>BOND
     1    28    29    1
     2    29    30    1
     3    29    26    1
     4    26    27    1
     5     1    26    1
     6     1     2    1
     7     2     3    1
     8     3     4    1
     9     4     7    1
    10     7     8   am
    11     8     9    2
    12     8    11    1
    13    11    12    1
    14    12    13   am
    15    13    14    2
    16    13    16    1
    17    16    17   ar
    18    17    18   ar
    19    18    19   ar
    20    19    20   ar
    21    20    22    1
    22    22    23    1
    23    22    24    1
    24    22    25    1
    25    20    21   ar
    26     4     5    1
    27     5    31    1
    28    31    32    1
    29    32    33    1
    30    33    34   ar
    31    34    35   ar
    32    35    36   ar
    33    36    37   ar
    34    37    38   ar
    35     5     6    1
    36     6     1    1
    37    21    16   ar
    38    38    33   ar
    39     7    10    1
    40    12    15    1
@<TRIPOS>MOLECULE
*****
 38 40 0 0 0
SMALL
GASTEIGER

@<TRIPOS>ATOM
      1 C         141.0485  137.6880  156.8767 C.3     1  UNL1        0.0577
      2 C         142.4621  138.1657  156.7231 C.3     1  UNL1        0.0177
      3 C         143.1010  138.9795  157.8091 C.3     1  UNL1        0.0211
      4 C         142.3263  139.3157  159.0488 C.3     1  UNL1        0.0752
      5 C         140.9128  138.8381  159.2024 C.3     1  UNL1        0.0630
      6 C         140.2739  138.0242  158.1164 C.3     1  UNL1        0.0213
      7 N         142.9652  140.1296  160.1348 N.am    1  UNL1       -0.3045
      8 C         143.8315  139.4620  161.1613 C.2     1  UNL1        0.2425
      9 O         144.0589  137.9805  161.1019 O.2     1  UNL1       -0.2733
     10 H         142.8160  141.1019  160.1738 H       1  UNL1        0.1494
     11 C         144.4704  140.2758  162.2473 C.3     1  UNL1        0.1759
     12 N         143.7528  140.4863  163.5477 N.am    1  UNL1       -0.2931
     13 C         142.5656  141.4010  163.6096 C.2     1  UNL1        0.2462
     14 O         142.0960  142.1052  162.3712 O.2     1  UNL1       -0.2701
     15 H         144.0610  140.0240  164.3605 H       1  UNL1        0.1502
     16 C         141.8480  141.6114  164.9099 C.ar    1  UNL1        0.0533
     17 C         140.9069  142.7687  165.0684 C.ar    1  UNL1        0.0045
     18 C         140.1892  142.9791  166.3688 C.ar    1  UNL1        0.0001
     19 C         140.4128  142.0323  167.5105 C.ar    1  UNL1        0.0039
     20 C         141.3539  140.8751  167.3520 C.ar    1  UNL1        0.0716
     21 C         142.0715  140.6646  166.0517 C.ar    1  UNL1        0.0084
     22 C         141.5774  139.9283  168.4937 C.3     1  UNL1        0.4186
     23 F         141.8010  138.9815  169.6355 F       1  UNL1       -0.1659
     24 F         143.0503  140.2060  168.4356 F       1  UNL1       -0.1659
     25 F         140.1045  139.6507  168.5519 F       1  UNL1       -0.1659
     26 N         140.4096  136.8742  155.7907 N.3     1  UNL1       -0.2741
     27 C         138.9641  137.0829  155.4488 C.3     1  UNL1        0.0896
     28 C         141.4042  135.9788  153.5638 C.3     1  UNL1        0.0173
     29 C         141.2162  135.8517  155.0465 C.3     1  UNL1        0.0576
     30 C         141.8348  134.7019  155.7851 C.3     1  UNL1        0.0173
     31 C         140.1380  139.1743  160.4421 C.3     1  UNL1        0.2070
     32 O         140.5285  138.5689  161.7578 O.3     1  UNL1       -0.4754
     33 C         139.7730  138.9288  163.0027 C.ar    1  UNL1        0.1386
     34 C         138.8756  140.1307  163.0144 C.ar    1  UNL1        0.0369
     35 C         138.1202  140.4905  164.2593 C.ar    1  UNL1        0.0031
     36 C         138.2621  139.6485  165.4925 C.ar    1  UNL1        0.0002
     37 C         139.1595  138.4466  165.4808 C.ar    1  UNL1        0.0031
     38 C         139.9149  138.0868  164.2359 C.ar    1  UNL1        0.0369
@<TRIPOS>BOND
     1    28    29    1
     2    29    30    1
     3    29    26    1
     4    26    27    1
     5     1    26    1
     6     1     2    1
     7     2     3    1
     8     3     4    1
     9     4     7    1
    10     7     8   am
    11     8     9    2
    12     8    11    1
    13    11    12    1
    14    12    13   am
    15    13    14    2
    16    13    16    1
    17    16    17   ar
    18    17    18   ar
    19    18    19   ar
    20    19    20   ar
    21    20    22    1
    22    22    23    1
    23    22    24    1
    24    22    25    1
    25    20    21   ar
    26     4     5    1
    27     5    31    1
    28    31    32    1
    29    32    33    1
    30    33    34   ar
    31    34    35   ar
    32    35    36   ar
    33    36    37   ar
    34    37    38   ar
    35     5     6    1
    36     6     1    1
    37    21    16   ar
    38    38    33   ar
    39     7    10    1
    40    12    15    1
@<TRIPOS>MOLECULE
*****
 38 40 0 0 0
SMALL
GASTEIGER

@<TRIPOS>ATOM
      1 C         141.9732  136.7399  156.8384 C.3     1  UNL1        0.0577
      2 C         140.6157  136.9279  156.2288 C.3     1  UNL1        0.0177
      3 C         139.6654  137.9328  156.8094 C.3     1  UNL1        0.0211
      4 C         140.0726  138.7497  157.9997 C.3     1  UNL1        0.0752
      5 C         141.4301  138.5616  158.6094 C.3     1  UNL1        0.0630
      6 C         142.3804  137.5567  158.0288 C.3     1  UNL1        0.0213
      7 N         139.1223  139.7545  158.5803 N.am    1  UNL1       -0.3045
      8 C         139.0479  141.1371  158.0034 C.2     1  UNL1        0.2425
      9 O         139.9239  141.5149  156.8457 O.2     1  UNL1       -0.2733
     10 H         138.5474  139.5066  159.3401 H       1  UNL1        0.1494
     11 C         138.0976  142.1420  158.5840 C.3     1  UNL1        0.1759
     12 N         138.4714  142.8983  159.8243 N.am    1  UNL1       -0.2931
     13 C         138.2315  142.2902  161.1744 C.2     1  UNL1        0.2462
     14 O         137.6179  140.9258  161.2841 O.2     1  UNL1       -0.2701
     15 H         138.8741  143.7938  159.7523 H       1  UNL1        0.1502
     16 C         138.6052  143.0464  162.4147 C.ar    1  UNL1        0.0533
     17 C         137.5770  143.2998  163.4771 C.ar    1  UNL1        0.0045
     18 C         137.9508  144.0561  164.7174 C.ar    1  UNL1        0.0001
     19 C         139.3527  144.5589  164.8954 C.ar    1  UNL1        0.0039
     20 C         140.3809  144.3056  163.8330 C.ar    1  UNL1        0.0716
     21 C         140.0072  143.5493  162.5927 C.ar    1  UNL1        0.0084
     22 C         141.7829  144.8084  164.0110 C.3     1  UNL1        0.4186
     23 F         143.1849  145.3113  164.1889 F       1  UNL1       -0.1659
     24 F         142.0904  143.6377  164.8968 F       1  UNL1       -0.1659
     25 F         141.4754  145.9791  163.1251 F       1  UNL1       -0.1659
     26 N         142.9235  135.7350  156.2578 N.3     1  UNL1       -0.2741
     27 C         144.0907  136.1945  155.4354 C.3     1  UNL1        0.0896
     28 C         141.7351  133.5060  155.6500 C.3     1  UNL1        0.0173
     29 C         142.7065  134.2706  156.4996 C.3     1  UNL1        0.0576
     30 C         143.4610  133.5707  157.5910 C.3     1  UNL1        0.0173
     31 C         141.8373  139.3785  159.7998 C.3     1  UNL1        0.2070
     32 O         140.8097  139.7978  160.8087 O.3     1  UNL1       -0.4754
     33 C         140.7068  139.0753  162.1193 C.ar    1  UNL1        0.1386
     34 C         141.1901  137.6601  162.2354 C.ar    1  UNL1        0.0369
     35 C         141.0873  136.9376  163.5459 C.ar    1  UNL1        0.0031
     36 C         140.5011  137.6304  164.7403 C.ar    1  UNL1        0.0002
     37 C         140.0178  139.0456  164.6241 C.ar    1  UNL1        0.0031
     38 C         140.1207  139.7680  163.3136 C.ar    1  UNL1        0.0369
@<TRIPOS>BOND
     1    28    29    1
     2    29    30    1
     3    29    26    1
     4    26    27    1
     5     1    26    1
     6     1     2    1
     7     2     3    1
     8     3     4    1
     9     4     7    1
    10     7     8   am
    11     8     9    2
    12     8    11    1
    13    11    12    1
    14    12    13   am
    15    13    14    2
    16    13    16    1
    17    16    17   ar
    18    17    18   ar
    19    18    19   ar
    20    19    20   ar
    21    20    22    1
    22    22    23    1
    23    22    24    1
    24    22    25    1
    25    20    21   ar
    26     4     5    1
    27     5    31    1
    28    31    32    1
    29    32    33    1
    30    33    34   ar
    31    34    35   ar
    32    35    36   ar
    33    36    37   ar
    34    37    38   ar
    35     5     6    1
    36     6     1    1
    37    21    16   ar
    38    38    33   ar
    39     7    10    1
    40    12    15    1
@<TRIPOS>MOLECULE
*****
 38 40 0 0 0
SMALL
GASTEIGER

@<TRIPOS>ATOM
      1 C         140.2902  144.1007  156.6453 C.3     1  UNL1        0.0577
      2 C         141.4141  145.0812  156.8046 C.3     1  UNL1        0.0177
      3 C         141.8782  145.4738  158.1760 C.3     1  UNL1        0.0211
      4 C         141.2183  144.8860  159.3879 C.3     1  UNL1        0.0752
      5 C         140.0944  143.9055  159.2286 C.3     1  UNL1        0.0630
      6 C         139.6303  143.5129  157.8573 C.3     1  UNL1        0.0213
      7 N         141.6823  145.2786  160.7593 N.am    1  UNL1       -0.3045
      8 C         142.6165  144.3846  161.5195 C.2     1  UNL1        0.2425
      9 O         143.0867  143.0979  160.9084 O.2     1  UNL1       -0.2733
     10 H         141.3737  146.1231  161.1603 H       1  UNL1        0.1494
     11 C         143.0805  144.7773  162.8908 C.3     1  UNL1        0.1759
     12 N         142.7442  143.9156  164.0717 N.am    1  UNL1       -0.2931
     13 C         143.6706  142.8090  164.4808 C.2     1  UNL1        0.2462
     14 O         144.9333  142.5642  163.7089 O.2     1  UNL1       -0.2701
     15 H         141.9155  144.0763  164.5783 H       1  UNL1        0.1502
     16 C         143.3344  141.9473  165.6616 C.ar    1  UNL1        0.0533
     17 C         143.1053  140.4766  165.4759 C.ar    1  UNL1        0.0045
     18 C         142.7690  139.6149  166.6568 C.ar    1  UNL1        0.0001
     19 C         142.6618  140.2240  168.0233 C.ar    1  UNL1        0.0039
     20 C         142.8909  141.6947  168.2091 C.ar    1  UNL1        0.0716
     21 C         143.2272  142.5564  167.0282 C.ar    1  UNL1        0.0084
     22 C         142.7838  142.3037  169.5756 C.3     1  UNL1        0.4186
     23 F         142.6767  142.9128  170.9423 F       1  UNL1       -0.1659
     24 F         144.2782  142.2815  169.7027 F       1  UNL1       -0.1659
     25 F         141.2894  142.3259  169.4486 F       1  UNL1       -0.1659
     26 N         139.8262  143.7081  155.2740 N.3     1  UNL1       -0.2741
     27 C         140.8255  143.3016  154.2318 C.3     1  UNL1        0.0896
     28 C         137.6710  142.4511  154.5492 C.3     1  UNL1        0.0173
     29 C         138.3629  143.7219  154.9448 C.3     1  UNL1        0.0576
     30 C         137.5912  145.0066  155.0112 C.3     1  UNL1        0.0173
     31 C         139.4344  143.3176  160.4406 C.3     1  UNL1        0.2070
     32 O         138.9920  144.2110  161.5613 O.3     1  UNL1       -0.4754
     33 C         139.2255  143.8001  162.9850 C.ar    1  UNL1        0.1386
     34 C         139.1110  144.8122  164.0861 C.ar    1  UNL1        0.0369
     35 C         139.3445  144.4012  165.5096 C.ar    1  UNL1        0.0031
     36 C         139.6924  142.9782  165.8321 C.ar    1  UNL1        0.0002
     37 C         139.8069  141.9661  164.7309 C.ar    1  UNL1        0.0031
     38 C         139.5734  142.3771  163.3074 C.ar    1  UNL1        0.0369
@<TRIPOS>BOND
     1    28    29    1
     2    29    30    1
     3    29    26    1
     4    26    27    1
     5     1    26    1
     6     1     2    1
     7     2     3    1
     8     3     4    1
     9     4     7    1
    10     7     8   am
    11     8     9    2
    12     8    11    1
    13    11    12    1
    14    12    13   am
    15    13    14    2
    16    13    16    1
    17    16    17   ar
    18    17    18   ar
    19    18    19   ar
    20    19    20   ar
    21    20    22    1
    22    22    23    1
    23    22    24    1
    24    22    25    1
    25    20    21   ar
    26     4     5    1
    27     5    31    1
    28    31    32    1
    29    32    33    1
    30    33    34   ar
    31    34    35   ar
    32    35    36   ar
    33    36    37   ar
    34    37    38   ar
    35     5     6    1
    36     6     1    1
    37    21    16   ar
    38    38    33   ar
    39     7    10    1
    40    12    15    1
