@<TRIPOS>MOLECULE
*****
 31 34 0 0 0
SMALL
GASTEIGER

@<TRIPOS>ATOM
      1 C         140.8675  146.3207  156.7626 C.ar    1  UNL1        0.1773
      2 C         142.1736  145.7694  157.2528 C.ar    1  UNL1        0.1402
      3 N         142.2880  145.2452  158.6535 N.ar    1  UNL1       -0.2089
      4 C         141.0963  145.2723  159.5640 C.ar    1  UNL1        0.2205
      5 N         139.7902  145.8236  159.0738 N.ar    1  UNL1       -0.2089
      6 C         139.6759  146.3478  157.6731 C.ar    1  UNL1        0.1402
      7 N         141.2107  144.7481  160.9648 N.pl3   1  UNL1       -0.2747
      8 C         140.4960  145.4424  162.0861 C.3     1  UNL1        0.1151
      9 C         140.6103  144.9183  163.4868 C.3     1  UNL1        0.1152
     10 N         141.4393  143.6998  163.7663 N.pl3   1  UNL1       -0.2722
     11 C         142.1539  143.0055  162.6451 C.3     1  UNL1        0.1152
     12 C         142.0396  143.5297  161.2443 C.3     1  UNL1        0.1151
     13 C         141.5536  143.1756  165.1672 C.ar    1  UNL1        0.2595
     14 N         142.7911  142.6102  165.7987 N.ar    1  UNL1       -0.0396
     15 O         142.4529  142.2099  167.2042 O.2     1  UNL1       -0.3269
     16 C         141.0062  142.5280  167.4413 C.ar    1  UNL1        0.3330
     17 N         140.4505  143.1248  166.1823 N.ar    1  UNL1       -0.1706
     18 C         140.2484  142.2909  168.7139 C.3     1  UNL1        0.4721
     19 F         139.4906  142.0537  169.9864 F       1  UNL1       -0.1619
     20 F         140.5291  143.7003  169.1436 F       1  UNL1       -0.1619
     21 F         139.9678  140.8814  168.2841 F       1  UNL1       -0.1619
     22 O         140.7532  146.8449  155.3618 O.3     1  UNL1       -0.4675
     23 C         139.4823  147.4992  154.9072 C.3     1  UNL1        0.2329
     24 C         139.0276  150.0449  155.1586 C.ar    1  UNL1        0.0871
     25 C         139.0601  151.4326  154.5902 C.ar    1  UNL1        0.1089
     26 N         139.5799  151.6625  153.2021 N.ar    1  UNL1       -0.2416
     27 C         140.0672  150.5047  152.3823 C.ar    1  UNL1        0.0987
     28 C         140.0346  149.1170  152.9507 C.ar    1  UNL1        0.0207
     29 C         139.5148  148.8871  154.3388 C.ar    1  UNL1        0.0339
     30 N         137.9880  149.5850  157.9349 N.1     1  UNL1       -0.1908
     31 C         138.5078  149.8149  156.5467 C.1     1  UNL1        0.1018
@<TRIPOS>BOND
     1    30    31    3
     2    31    24    1
     3    24    25   ar
     4    25    26   ar
     5    26    27   ar
     6    27    28   ar
     7    28    29   ar
     8    29    23    1
     9    23    22    1
    10    22     1    1
    11     1     2   ar
    12     2     3   ar
    13     3     4   ar
    14     4     7    1
    15     7     8    1
    16     8     9    1
    17     9    10    1
    18    10    13    1
    19    13    14   ar
    20    14    15   ar
    21    15    16   ar
    22    16    18    1
    23    18    19    1
    24    18    20    1
    25    18    21    1
    26    16    17   ar
    27    10    11    1
    28    11    12    1
    29     4     5   ar
    30     5     6   ar
    31    29    24   ar
    32     6     1   ar
    33    12     7    1
    34    17    13   ar
@<TRIPOS>MOLECULE
*****
 31 34 0 0 0
SMALL
GASTEIGER

@<TRIPOS>ATOM
      1 C         141.4055  138.0290  157.6642 C.ar    1  UNL1        0.1773
      2 C         139.9811  138.2672  158.0697 C.ar    1  UNL1        0.1402
      3 N         139.6372  138.4729  159.5151 N.ar    1  UNL1       -0.2089
      4 C         140.7177  138.4404  160.5551 C.ar    1  UNL1        0.2205
      5 N         142.1420  138.2022  160.1495 N.ar    1  UNL1       -0.2089
      6 C         142.4859  137.9965  158.7041 C.ar    1  UNL1        0.1402
      7 N         140.3738  138.6461  162.0006 N.pl3   1  UNL1       -0.2747
      8 C         140.8551  137.6694  163.0323 C.3     1  UNL1        0.1151
      9 C         140.5113  137.8750  164.4778 C.3     1  UNL1        0.1152
     10 N         139.6861  139.0573  164.8916 N.pl3   1  UNL1       -0.2722
     11 C         139.2048  140.0340  163.8598 C.3     1  UNL1        0.1152
     12 C         139.5486  139.8283  162.4144 C.3     1  UNL1        0.1151
     13 C         139.3422  139.2630  166.3371 C.ar    1  UNL1        0.2595
     14 N         138.0523  138.8797  166.9997 N.ar    1  UNL1       -0.0396
     15 O         138.1408  139.2679  168.4459 O.2     1  UNL1       -0.3269
     16 C         139.4855  139.8911  168.6771 C.ar    1  UNL1        0.3330
     17 N         140.2280  139.8881  167.3738 N.ar    1  UNL1       -0.1706
     18 C         139.9977  140.4239  169.9824 C.3     1  UNL1        0.4721
     19 F         140.5099  140.9566  171.2877 F       1  UNL1       -0.1619
     20 F         141.1637  139.4831  169.9088 F       1  UNL1       -0.1619
     21 F         138.8317  141.3646  170.0560 F       1  UNL1       -0.1619
     22 O         141.7494  137.8233  156.2186 O.3     1  UNL1       -0.4675
     23 C         142.8468  136.8750  155.8364 C.3     1  UNL1        0.2329
     24 C         141.7343  134.6248  155.1664 C.ar    1  UNL1        0.0871
     25 C         141.5578  133.1500  155.3754 C.ar    1  UNL1        0.1089
     26 N         142.3174  132.4505  156.4634 N.ar    1  UNL1       -0.2416
     27 C         143.2534  133.2258  157.3424 C.ar    1  UNL1        0.0987
     28 C         143.4299  134.7007  157.1334 C.ar    1  UNL1        0.0207
     29 C         142.6703  135.4001  156.0454 C.ar    1  UNL1        0.0339
     30 N         140.2151  136.0238  152.9904 N.1     1  UNL1       -0.1908
     31 C         140.9747  135.3243  154.0784 C.1     1  UNL1        0.1018
@<TRIPOS>BOND
     1    30    31    3
     2    31    24    1
     3    24    25   ar
     4    25    26   ar
     5    26    27   ar
     6    27    28   ar
     7    28    29   ar
     8    29    23    1
     9    23    22    1
    10    22     1    1
    11     1     2   ar
    12     2     3   ar
    13     3     4   ar
    14     4     7    1
    15     7     8    1
    16     8     9    1
    17     9    10    1
    18    10    13    1
    19    13    14   ar
    20    14    15   ar
    21    15    16   ar
    22    16    18    1
    23    18    19    1
    24    18    20    1
    25    18    21    1
    26    16    17   ar
    27    10    11    1
    28    11    12    1
    29     4     5   ar
    30     5     6   ar
    31    29    24   ar
    32     6     1   ar
    33    12     7    1
    34    17    13   ar
@<TRIPOS>MOLECULE
*****
 31 34 0 0 0
SMALL
GASTEIGER

@<TRIPOS>ATOM
      1 C         139.4165  139.6780  166.6519 C.ar    1  UNL1        0.1773
      2 C         140.8909  139.4810  166.4583 C.ar    1  UNL1        0.1402
      3 N         141.4378  139.2093  165.0883 N.ar    1  UNL1       -0.2089
      4 C         140.5103  139.1345  163.9118 C.ar    1  UNL1        0.2205
      5 N         139.0360  139.3315  164.1054 N.ar    1  UNL1       -0.2089
      6 C         138.4891  139.6033  165.4754 C.ar    1  UNL1        0.1402
      7 N         141.0572  138.8627  162.5417 N.pl3   1  UNL1       -0.2747
      8 C         142.4769  138.4070  162.3777 C.3     1  UNL1        0.1151
      9 C         143.0238  138.1352  161.0077 C.3     1  UNL1        0.1152
     10 N         142.1511  138.3191  159.8017 N.pl3   1  UNL1       -0.2722
     11 C         140.7314  138.7748  159.9657 C.3     1  UNL1        0.1152
     12 C         140.1845  139.0466  161.3358 C.3     1  UNL1        0.1151
     13 C         142.6980  138.0473  158.4316 C.ar    1  UNL1        0.2595
     14 N         143.6508  138.9228  157.6730 N.ar    1  UNL1       -0.0396
     15 O         143.9298  138.2689  156.3522 O.2     1  UNL1       -0.3269
     16 C         143.1492  136.9892  156.2944 C.ar    1  UNL1        0.3330
     17 N         142.3879  136.8523  157.5796 N.ar    1  UNL1       -0.1706
     18 C         143.1328  136.0172  155.1521 C.3     1  UNL1        0.4721
     19 F         143.1165  135.0452  154.0098 F       1  UNL1       -0.1619
     20 F         144.2804  135.2735  155.7686 F       1  UNL1       -0.1619
     21 F         141.9853  136.7609  154.5357 F       1  UNL1       -0.1619
     22 O         138.8696  139.9498  168.0220 O.3     1  UNL1       -0.4675
     23 C         139.7790  139.9091  169.2142 C.3     1  UNL1        0.2329
     24 C         141.9815  140.9915  170.0671 C.ar    1  UNL1        0.0871
     25 C         142.7644  142.2107  170.4551 C.ar    1  UNL1        0.1089
     26 N         142.1278  143.5667  170.3783 N.ar    1  UNL1       -0.2416
     27 C         140.7082  143.7035  169.9134 C.ar    1  UNL1        0.0987
     28 C         139.9253  142.4844  169.5254 C.ar    1  UNL1        0.0207
     29 C         140.5620  141.1283  169.6022 C.ar    1  UNL1        0.0339
     30 N         143.2548  138.2794  170.2207 N.1     1  UNL1       -0.1908
     31 C         142.6181  139.6355  170.1439 C.1     1  UNL1        0.1018
@<TRIPOS>BOND
     1    30    31    3
     2    31    24    1
     3    24    25   ar
     4    25    26   ar
     5    26    27   ar
     6    27    28   ar
     7    28    29   ar
     8    29    23    1
     9    23    22    1
    10    22     1    1
    11     1     2   ar
    12     2     3   ar
    13     3     4   ar
    14     4     7    1
    15     7     8    1
    16     8     9    1
    17     9    10    1
    18    10    13    1
    19    13    14   ar
    20    14    15   ar
    21    15    16   ar
    22    16    18    1
    23    18    19    1
    24    18    20    1
    25    18    21    1
    26    16    17   ar
    27    10    11    1
    28    11    12    1
    29     4     5   ar
    30     5     6   ar
    31    29    24   ar
    32     6     1   ar
    33    12     7    1
    34    17    13   ar
@<TRIPOS>MOLECULE
*****
 31 34 0 0 0
SMALL
GASTEIGER

@<TRIPOS>ATOM
      1 C         138.1449  142.2427  162.2721 C.ar    1  UNL1        0.1773
      2 C         138.5269  140.8788  162.7660 C.ar    1  UNL1        0.1402
      3 N         139.3069  139.9520  161.8813 N.ar    1  UNL1       -0.2089
      4 C         139.7049  140.3892  160.5027 C.ar    1  UNL1        0.2205
      5 N         139.3229  141.7530  160.0089 N.ar    1  UNL1       -0.2089
      6 C         138.5429  142.6798  160.8935 C.ar    1  UNL1        0.1402
      7 N         140.4850  139.4624  159.6180 N.pl3   1  UNL1       -0.2747
      8 C         139.8414  138.8702  158.3993 C.3     1  UNL1        0.1151
      9 C         140.6213  137.9435  157.5146 C.3     1  UNL1        0.1152
     10 N         142.0449  137.6090  157.8485 N.pl3   1  UNL1       -0.2722
     11 C         142.6885  138.2011  159.0671 C.3     1  UNL1        0.1152
     12 C         141.9085  139.1279  159.9519 C.3     1  UNL1        0.1151
     13 C         142.8249  136.6822  156.9637 C.ar    1  UNL1        0.2595
     14 N         143.9245  137.0782  156.0235 N.ar    1  UNL1       -0.0396
     15 O         144.4214  135.8375  155.3426 O.2     1  UNL1       -0.3269
     16 C         143.6289  134.6746  155.8620 C.ar    1  UNL1        0.3330
     17 N         142.6423  135.1967  156.8639 N.ar    1  UNL1       -0.1706
     18 C         143.7942  133.2413  155.4516 C.3     1  UNL1        0.4721
     19 F         143.9594  131.8081  155.0412 F       1  UNL1       -0.1619
     20 F         144.6007  132.9800  156.6890 F       1  UNL1       -0.1619
     21 F         142.9876  133.5027  154.2142 F       1  UNL1       -0.1619
     22 O         137.3649  143.1694  163.1568 O.3     1  UNL1       -0.4675
     23 C         138.0840  144.1464  164.0391 C.3     1  UNL1        0.2329
     24 C         140.5037  144.8290  163.3840 C.ar    1  UNL1        0.0871
     25 C         141.9857  144.7102  163.5825 C.ar    1  UNL1        0.1089
     26 N         142.5302  143.7902  164.6348 N.ar    1  UNL1       -0.2416
     27 C         141.5926  142.9890  165.4885 C.ar    1  UNL1        0.0987
     28 C         140.1105  143.1077  165.2899 C.ar    1  UNL1        0.0207
     29 C         139.5661  144.0277  164.2376 C.ar    1  UNL1        0.0339
     30 N         139.4149  146.6689  161.2795 N.1     1  UNL1       -0.1908
     31 C         139.9593  145.7489  162.3317 C.1     1  UNL1        0.1018
@<TRIPOS>BOND
     1    30    31    3
     2    31    24    1
     3    24    25   ar
     4    25    26   ar
     5    26    27   ar
     6    27    28   ar
     7    28    29   ar
     8    29    23    1
     9    23    22    1
    10    22     1    1
    11     1     2   ar
    12     2     3   ar
    13     3     4   ar
    14     4     7    1
    15     7     8    1
    16     8     9    1
    17     9    10    1
    18    10    13    1
    19    13    14   ar
    20    14    15   ar
    21    15    16   ar
    22    16    18    1
    23    18    19    1
    24    18    20    1
    25    18    21    1
    26    16    17   ar
    27    10    11    1
    28    11    12    1
    29     4     5   ar
    30     5     6   ar
    31    29    24   ar
    32     6     1   ar
    33    12     7    1
    34    17    13   ar
@<TRIPOS>MOLECULE
*****
 31 34 0 0 0
SMALL
GASTEIGER

@<TRIPOS>ATOM
      1 C         140.2337  145.3132  158.1892 C.ar    1  UNL1        0.1773
      2 C         139.4034  144.0647  158.2321 C.ar    1  UNL1        0.1402
      3 N         139.2430  143.3146  159.5211 N.ar    1  UNL1       -0.2089
      4 C         139.9129  143.8130  160.7672 C.ar    1  UNL1        0.2205
      5 N         140.7433  145.0615  160.7242 N.ar    1  UNL1       -0.2089
      6 C         140.9037  145.8116  159.4352 C.ar    1  UNL1        0.1402
      7 N         139.7526  143.0630  162.0563 N.pl3   1  UNL1       -0.2747
      8 C         138.4602  143.1411  162.8137 C.3     1  UNL1        0.1151
      9 C         138.2998  142.3911  164.1028 C.3     1  UNL1        0.1152
     10 N         139.4317  141.5629  164.6344 N.pl3   1  UNL1       -0.2722
     11 C         140.7241  141.4848  163.8770 C.3     1  UNL1        0.1152
     12 C         140.8845  142.2348  162.5880 C.3     1  UNL1        0.1151
     13 C         139.2714  140.8129  165.9235 C.ar    1  UNL1        0.2595
     14 N         138.4661  139.5631  166.1221 N.ar    1  UNL1       -0.0396
     15 O         138.5851  139.1587  167.5617 O.2     1  UNL1       -0.3269
     16 C         139.4641  140.1587  168.2528 C.ar    1  UNL1        0.3330
     17 N         139.8882  141.1810  167.2404 N.ar    1  UNL1       -0.1706
     18 C         139.8510  140.1396  169.7019 C.3     1  UNL1        0.4721
     19 F         140.2378  140.1206  171.1510 F       1  UNL1       -0.1619
     20 F         138.5812  140.8582  170.0504 F       1  UNL1       -0.1619
     21 F         141.1207  139.4211  169.3535 F       1  UNL1       -0.1619
     22 O         140.3941  146.0633  156.9000 O.3     1  UNL1       -0.4675
     23 C         139.1969  146.6733  156.2333 C.3     1  UNL1        0.2329
     24 C         138.9257  149.2214  155.8047 C.ar    1  UNL1        0.0871
     25 C         139.0920  150.4129  154.9089 C.ar    1  UNL1        0.1089
     26 N         139.6960  150.2479  153.5458 N.ar    1  UNL1       -0.2416
     27 C         140.1336  148.8914  153.0785 C.ar    1  UNL1        0.0987
     28 C         139.9672  147.6999  153.9744 C.ar    1  UNL1        0.0207
     29 C         139.3633  147.8649  155.3375 C.ar    1  UNL1        0.0339
     30 N         137.7177  149.5514  158.5309 N.1     1  UNL1       -0.1908
     31 C         138.3217  149.3864  157.1678 C.1     1  UNL1        0.1018
@<TRIPOS>BOND
     1    30    31    3
     2    31    24    1
     3    24    25   ar
     4    25    26   ar
     5    26    27   ar
     6    27    28   ar
     7    28    29   ar
     8    29    23    1
     9    23    22    1
    10    22     1    1
    11     1     2   ar
    12     2     3   ar
    13     3     4   ar
    14     4     7    1
    15     7     8    1
    16     8     9    1
    17     9    10    1
    18    10    13    1
    19    13    14   ar
    20    14    15   ar
    21    15    16   ar
    22    16    18    1
    23    18    19    1
    24    18    20    1
    25    18    21    1
    26    16    17   ar
    27    10    11    1
    28    11    12    1
    29     4     5   ar
    30     5     6   ar
    31    29    24   ar
    32     6     1   ar
    33    12     7    1
    34    17    13   ar
@<TRIPOS>MOLECULE
*****
 31 34 0 0 0
SMALL
GASTEIGER

@<TRIPOS>ATOM
      1 C         140.6292  137.2043  154.6293 C.ar    1  UNL1        0.1773
      2 C         139.5955  136.7870  155.6329 C.ar    1  UNL1        0.1402
      3 N         139.3011  137.6626  156.8147 N.ar    1  UNL1       -0.2089
      4 C         140.0404  138.9556  156.9927 C.ar    1  UNL1        0.2205
      5 N         141.0741  139.3729  155.9891 N.ar    1  UNL1       -0.2089
      6 C         141.3685  138.4972  154.8074 C.ar    1  UNL1        0.1402
      7 N         139.7459  139.8313  158.1745 N.pl3   1  UNL1       -0.2747
      8 C         138.7750  140.9670  158.0430 C.3     1  UNL1        0.1151
      9 C         138.4806  141.8427  159.2247 C.3     1  UNL1        0.1152
     10 N         139.1571  141.5826  160.5379 N.pl3   1  UNL1       -0.2722
     11 C         140.1280  140.4469  160.6695 C.3     1  UNL1        0.1152
     12 C         140.4224  139.5712  159.4878 C.3     1  UNL1        0.1151
     13 C         138.8627  142.4583  161.7197 C.ar    1  UNL1        0.2595
     14 N         137.8699  143.5821  161.7588 N.ar    1  UNL1       -0.0396
     15 O         137.9030  144.1823  163.1331 O.2     1  UNL1       -0.3269
     16 C         138.9163  143.4294  163.9434 C.ar    1  UNL1        0.3330
     17 N         139.5094  142.3640  163.0698 N.ar    1  UNL1       -0.1706
     18 C         139.2737  143.6953  165.3757 C.3     1  UNL1        0.4721
     19 F         139.6311  143.9612  166.8080 F       1  UNL1       -0.1619
     20 F         139.4420  142.2229  165.6071 F       1  UNL1       -0.1619
     21 F         139.1055  145.1677  165.1443 F       1  UNL1       -0.1619
     22 O         140.9236  136.3286  153.4475 O.3     1  UNL1       -0.4675
     23 C         142.1247  135.4302  153.4605 C.3     1  UNL1        0.2329
     24 C         143.3340  134.8663  155.6898 C.ar    1  UNL1        0.0871
     25 C         143.5627  133.9367  156.8445 C.ar    1  UNL1        0.1089
     26 N         142.8109  132.6411  156.9246 N.ar    1  UNL1       -0.2416
     27 C         141.8304  132.2752  155.8500 C.ar    1  UNL1        0.0987
     28 C         141.6017  133.2049  154.6954 C.ar    1  UNL1        0.0207
     29 C         142.3535  134.5005  154.6152 C.ar    1  UNL1        0.0339
     30 N         144.8375  137.4574  155.5296 N.1     1  UNL1       -0.1908
     31 C         144.0857  136.1619  155.6097 C.1     1  UNL1        0.1018
@<TRIPOS>BOND
     1    30    31    3
     2    31    24    1
     3    24    25   ar
     4    25    26   ar
     5    26    27   ar
     6    27    28   ar
     7    28    29   ar
     8    29    23    1
     9    23    22    1
    10    22     1    1
    11     1     2   ar
    12     2     3   ar
    13     3     4   ar
    14     4     7    1
    15     7     8    1
    16     8     9    1
    17     9    10    1
    18    10    13    1
    19    13    14   ar
    20    14    15   ar
    21    15    16   ar
    22    16    18    1
    23    18    19    1
    24    18    20    1
    25    18    21    1
    26    16    17   ar
    27    10    11    1
    28    11    12    1
    29     4     5   ar
    30     5     6   ar
    31    29    24   ar
    32     6     1   ar
    33    12     7    1
    34    17    13   ar
@<TRIPOS>MOLECULE
*****
 31 34 0 0 0
SMALL
GASTEIGER

@<TRIPOS>ATOM
      1 C         142.4470  139.0368  166.8650 C.ar    1  UNL1        0.1773
      2 C         141.1734  139.8071  166.6790 C.ar    1  UNL1        0.1402
      3 N         140.5803  139.9562  165.3094 N.ar    1  UNL1       -0.2089
      4 C         141.2608  139.3350  164.1258 C.ar    1  UNL1        0.2205
      5 N         142.5344  138.5646  164.3118 N.ar    1  UNL1       -0.2089
      6 C         143.1275  138.4156  165.6814 C.ar    1  UNL1        0.1402
      7 N         140.6677  139.4840  162.7560 N.pl3   1  UNL1       -0.2747
      8 C         140.6771  138.3245  161.8044 C.3     1  UNL1        0.1151
      9 C         140.0840  138.4736  160.4348 C.3     1  UNL1        0.1152
     10 N         139.4816  139.7820  160.0167 N.pl3   1  UNL1       -0.2722
     11 C         139.4722  140.9415  160.9683 C.3     1  UNL1        0.1152
     12 C         140.0652  140.7925  162.3380 C.3     1  UNL1        0.1151
     13 C         138.8884  139.9311  158.6470 C.ar    1  UNL1        0.2595
     14 N         138.9998  138.9413  157.5254 N.ar    1  UNL1       -0.0396
     15 O         138.2601  139.4946  156.3437 O.2     1  UNL1       -0.3269
     16 C         137.6914  140.8265  156.7349 C.ar    1  UNL1        0.3330
     17 N         138.0798  141.0962  158.1584 N.ar    1  UNL1       -0.1706
     18 C         136.8774  141.7299  155.8567 C.3     1  UNL1        0.4721
     19 F         136.0634  142.6333  154.9786 F       1  UNL1       -0.1619
     20 F         136.8611  142.7677  156.9395 F       1  UNL1       -0.1619
     21 F         136.8937  140.6920  154.7739 F       1  UNL1       -0.1619
     22 O         143.0401  138.8877  168.2347 O.3     1  UNL1       -0.4675
     23 C         142.2486  139.2925  169.4429 C.3     1  UNL1        0.2329
     24 C         140.7846  141.3528  170.0447 C.ar    1  UNL1        0.0871
     25 C         140.6709  142.8016  170.4158 C.ar    1  UNL1        0.1089
     26 N         141.9073  143.6392  170.5563 N.ar    1  UNL1       -0.2416
     27 C         143.2575  143.0279  170.3256 C.ar    1  UNL1        0.0987
     28 C         143.3713  141.5790  169.9545 C.ar    1  UNL1        0.0207
     29 C         142.1348  140.7415  169.8140 C.ar    1  UNL1        0.0339
     30 N         138.3118  139.6776  169.7638 N.1     1  UNL1       -0.1908
     31 C         139.5482  140.5152  169.9043 C.1     1  UNL1        0.1018
@<TRIPOS>BOND
     1    30    31    3
     2    31    24    1
     3    24    25   ar
     4    25    26   ar
     5    26    27   ar
     6    27    28   ar
     7    28    29   ar
     8    29    23    1
     9    23    22    1
    10    22     1    1
    11     1     2   ar
    12     2     3   ar
    13     3     4   ar
    14     4     7    1
    15     7     8    1
    16     8     9    1
    17     9    10    1
    18    10    13    1
    19    13    14   ar
    20    14    15   ar
    21    15    16   ar
    22    16    18    1
    23    18    19    1
    24    18    20    1
    25    18    21    1
    26    16    17   ar
    27    10    11    1
    28    11    12    1
    29     4     5   ar
    30     5     6   ar
    31    29    24   ar
    32     6     1   ar
    33    12     7    1
    34    17    13   ar
@<TRIPOS>MOLECULE
*****
 31 34 0 0 0
SMALL
GASTEIGER

@<TRIPOS>ATOM
      1 C         141.5391  138.0860  158.1413 C.ar    1  UNL1        0.1773
      2 C         142.9021  137.9905  158.7603 C.ar    1  UNL1        0.1402
      3 N         143.0965  138.3454  160.2046 N.ar    1  UNL1       -0.2089
      4 C         141.9278  138.7957  161.0301 C.ar    1  UNL1        0.2205
      5 N         140.5648  138.8912  160.4111 N.ar    1  UNL1       -0.2089
      6 C         140.3705  138.5363  158.9667 C.ar    1  UNL1        0.1402
      7 N         142.1221  139.1506  162.4745 N.pl3   1  UNL1       -0.2747
      8 C         142.2151  140.5897  162.8873 C.3     1  UNL1        0.1151
      9 C         142.4094  140.9446  164.3316 C.3     1  UNL1        0.1152
     10 N         142.5107  139.8604  165.3632 N.pl3   1  UNL1       -0.2722
     11 C         142.4177  138.4213  164.9505 C.3     1  UNL1        0.1152
     12 C         142.2234  138.0664  163.5061 C.3     1  UNL1        0.1151
     13 C         142.7050  140.2153  166.8077 C.ar    1  UNL1        0.2595
     14 N         142.9128  139.2461  167.9335 N.ar    1  UNL1       -0.0396
     15 O         143.0618  140.0335  169.2015 O.2     1  UNL1       -0.3269
     16 C         142.9462  141.4894  168.8593 C.ar    1  UNL1        0.3330
     17 N         142.7256  141.6017  167.3799 N.ar    1  UNL1       -0.1706
     18 C         143.0354  142.6322  169.8268 C.3     1  UNL1        0.4721
     19 F         143.1246  143.7751  170.7942 F       1  UNL1       -0.1619
     20 F         141.5708  142.9004  169.6450 F       1  UNL1       -0.1619
     21 F         144.5000  142.3640  170.0085 F       1  UNL1       -0.1619
     22 O         141.3448  137.7311  156.6968 O.3     1  UNL1       -0.4675
     23 C         142.3824  136.9214  155.9774 C.3     1  UNL1        0.2329
     24 C         141.5049  134.6616  155.0428 C.ar    1  UNL1        0.0871
     25 C         141.4582  133.1634  155.0981 C.ar    1  UNL1        0.1089
     26 N         142.2424  132.4266  156.1432 N.ar    1  UNL1       -0.2416
     27 C         143.0732  133.1881  157.1330 C.ar    1  UNL1        0.0987
     28 C         143.1199  134.6863  157.0777 C.ar    1  UNL1        0.0207
     29 C         142.3357  135.4231  156.0326 C.ar    1  UNL1        0.0339
     30 N         139.9365  136.1351  152.9525 N.1     1  UNL1       -0.1908
     31 C         140.7207  135.3984  153.9977 C.1     1  UNL1        0.1018
@<TRIPOS>BOND
     1    30    31    3
     2    31    24    1
     3    24    25   ar
     4    25    26   ar
     5    26    27   ar
     6    27    28   ar
     7    28    29   ar
     8    29    23    1
     9    23    22    1
    10    22     1    1
    11     1     2   ar
    12     2     3   ar
    13     3     4   ar
    14     4     7    1
    15     7     8    1
    16     8     9    1
    17     9    10    1
    18    10    13    1
    19    13    14   ar
    20    14    15   ar
    21    15    16   ar
    22    16    18    1
    23    18    19    1
    24    18    20    1
    25    18    21    1
    26    16    17   ar
    27    10    11    1
    28    11    12    1
    29     4     5   ar
    30     5     6   ar
    31    29    24   ar
    32     6     1   ar
    33    12     7    1
    34    17    13   ar
@<TRIPOS>MOLECULE
*****
 31 34 0 0 0
SMALL
GASTEIGER

@<TRIPOS>ATOM
      1 C         141.4335  137.9324  157.5159 C.ar    1  UNL1        0.1773
      2 C         140.0177  138.2249  157.9156 C.ar    1  UNL1        0.1402
      3 N         139.6752  138.4397  159.3601 N.ar    1  UNL1       -0.2089
      4 C         140.7486  138.3619  160.4049 C.ar    1  UNL1        0.2205
      5 N         142.1645  138.0694  160.0052 N.ar    1  UNL1       -0.2089
      6 C         142.5070  137.8547  158.5607 C.ar    1  UNL1        0.1402
      7 N         140.4062  138.5766  161.8494 N.pl3   1  UNL1       -0.2747
      8 C         141.4938  138.8517  162.8452 C.3     1  UNL1        0.1151
      9 C         141.1514  139.0664  164.2897 C.3     1  UNL1        0.1152
     10 N         139.7214  139.0061  164.7384 N.pl3   1  UNL1       -0.2722
     11 C         138.6338  138.7310  163.7427 C.3     1  UNL1        0.1152
     12 C         138.9762  138.5163  162.2982 C.3     1  UNL1        0.1151
     13 C         139.3790  139.2208  166.1830 C.ar    1  UNL1        0.2595
     14 N         138.0933  138.8332  166.8514 N.ar    1  UNL1       -0.0396
     15 O         138.1819  139.2337  168.2942 O.2     1  UNL1       -0.3269
     16 C         139.5223  139.8689  168.5176 C.ar    1  UNL1        0.3330
     17 N         140.2621  139.8609  167.2127 N.ar    1  UNL1       -0.1706
     18 C         140.0332  140.4159  169.8175 C.3     1  UNL1        0.4721
     19 F         140.5440  140.9630  171.1173 F       1  UNL1       -0.1619
     20 F         141.2902  139.6126  169.6615 F       1  UNL1       -0.1619
     21 F         138.7761  141.2193  169.9734 F       1  UNL1       -0.1619
     22 O         141.7760  137.7177  156.0714 O.3     1  UNL1       -0.4675
     23 C         142.8965  136.7941  155.6955 C.3     1  UNL1        0.2329
     24 C         142.8616  134.2106  155.4228 C.ar    1  UNL1        0.0871
     25 C         142.5843  132.9962  154.5872 C.ar    1  UNL1        0.1089
     26 N         142.0646  133.1508  153.1887 N.ar    1  UNL1       -0.2416
     27 C         141.8221  134.5198  152.6257 C.ar    1  UNL1        0.0987
     28 C         142.0994  135.7342  153.4613 C.ar    1  UNL1        0.0207
     29 C         142.6192  135.5796  154.8599 C.ar    1  UNL1        0.0339
     30 N         143.9011  133.9014  158.2199 N.1     1  UNL1       -0.1908
     31 C         143.3814  134.0560  156.8214 C.1     1  UNL1        0.1018
@<TRIPOS>BOND
     1    30    31    3
     2    31    24    1
     3    24    25   ar
     4    25    26   ar
     5    26    27   ar
     6    27    28   ar
     7    28    29   ar
     8    29    23    1
     9    23    22    1
    10    22     1    1
    11     1     2   ar
    12     2     3   ar
    13     3     4   ar
    14     4     7    1
    15     7     8    1
    16     8     9    1
    17     9    10    1
    18    10    13    1
    19    13    14   ar
    20    14    15   ar
    21    15    16   ar
    22    16    18    1
    23    18    19    1
    24    18    20    1
    25    18    21    1
    26    16    17   ar
    27    10    11    1
    28    11    12    1
    29     4     5   ar
    30     5     6   ar
    31    29    24   ar
    32     6     1   ar
    33    12     7    1
    34    17    13   ar
