@<TRIPOS>MOLECULE
*****
 26 28 0 0 0
SMALL
GASTEIGER

@<TRIPOS>ATOM
      1 C         137.6983  140.4363  160.8083 C.3     1  UNL1        0.0722
      2 C         138.2919  141.5392  161.6336 C.ar    1  UNL1        0.1240
      3 N         138.4079  142.9789  161.2286 N.ar    1  UNL1       -0.2339
      4 C         139.0614  143.7256  162.3535 C.ar    1  UNL1        0.0881
      5 C         139.3493  142.7475  163.4537 C.ar    1  UNL1        0.0569
      6 N         138.8737  141.3962  163.0088 N.ar    1  UNL1       -0.2975
      7 C         138.9640  140.1251  163.8001 C.ar    1  UNL1        0.0692
      8 C         139.8907  139.0312  163.3589 C.ar    1  UNL1        0.0473
      9 C         139.9810  137.7602  164.1502 C.ar    1  UNL1        0.1438
     10 F         140.9077  136.6662  163.7090 F       1  UNL1       -0.2040
     11 C         139.1447  137.5830  165.3828 C.ar    1  UNL1        0.0593
     12 C         138.2181  138.6769  165.8240 C.ar    1  UNL1        0.1438
     13 F         137.3818  138.4998  167.0566 F       1  UNL1       -0.2040
     14 C         138.1277  139.9479  165.0327 C.ar    1  UNL1        0.0473
     15 C         139.9987  143.0649  164.7680 C.3     1  UNL1        0.0399
     16 C         139.3689  144.0626  165.6942 C.3     1  UNL1        0.0063
     17 C         141.2779  142.3845  165.1562 C.3     1  UNL1        0.0063
     18 C         139.3724  145.1929  162.3746 C.3     1  UNL1        0.1163
     19 N         140.7137  145.6819  161.9143 N.3     1  UNL1       -0.2934
     20 H         140.7222  146.6924  162.0530 H       1  UNL1        0.1236
     21 C         141.9644  145.1475  162.5470 C.3     1  UNL1        0.0571
     22 C         142.5395  145.5778  163.8638 C.3     1  UNL1        0.0186
     23 C         143.7901  144.7853  164.1046 C.3     1  UNL1        0.0367
     24 C         143.9878  143.8651  162.9366 C.3     1  UNL1        0.1624
     25 F         145.1158  142.8920  162.7619 F       1  UNL1       -0.2372
     26 C         142.8594  144.0890  161.9739 C.3     1  UNL1        0.0510
@<TRIPOS>BOND
     1     1     2    1
     2     2     3   ar
     3     3     4   ar
     4     4    18    1
     5    18    19    1
     6    21    19    1
     7    21    22    1
     8    22    23    1
     9    23    24    1
    10    24    25    1
    11    24    26    1
    12     4     5   ar
    13     5    15    1
    14    15    16    1
    15    15    17    1
    16     5     6   ar
    17     6     7    1
    18     7     8   ar
    19     8     9   ar
    20     9    10    1
    21     9    11   ar
    22    11    12   ar
    23    12    13    1
    24    12    14   ar
    25     6     2   ar
    26    14     7   ar
    27    26    21    1
    28    19    20    1
@<TRIPOS>MOLECULE
*****
 26 28 0 0 0
SMALL
GASTEIGER

@<TRIPOS>ATOM
      1 C         137.7262  140.4966  160.8440 C.3     1  UNL1        0.0722
      2 C         138.2805  141.6138  161.6774 C.ar    1  UNL1        0.1240
      3 N         138.3912  143.0513  161.2636 N.ar    1  UNL1       -0.2339
      4 C         139.0006  143.8157  162.4014 C.ar    1  UNL1        0.0881
      5 C         139.2664  142.8505  163.5184 C.ar    1  UNL1        0.0569
      6 N         138.8214  141.4897  163.0710 N.ar    1  UNL1       -0.2975
      7 C         138.9029  140.2265  163.8759 C.ar    1  UNL1        0.0692
      8 C         138.0522  140.0611  165.1002 C.ar    1  UNL1        0.0473
      9 C         138.1338  138.7979  165.9050 C.ar    1  UNL1        0.1438
     10 F         137.2831  138.6324  167.1293 F       1  UNL1       -0.2040
     11 C         139.0661  137.7003  165.4856 C.ar    1  UNL1        0.0593
     12 C         139.9168  137.8657  164.2613 C.ar    1  UNL1        0.1438
     13 F         140.8491  136.7680  163.8419 F       1  UNL1       -0.2040
     14 C         139.8352  139.1288  163.4565 C.ar    1  UNL1        0.0473
     15 C         139.8711  143.1871  164.8492 C.3     1  UNL1        0.0399
     16 C         139.2306  144.2242  165.7233 C.3     1  UNL1        0.0063
     17 C         141.1164  142.4866  165.3059 C.3     1  UNL1        0.0063
     18 C         139.2927  145.2868  162.4190 C.3     1  UNL1        0.1163
     19 N         140.6415  145.7887  161.9959 N.3     1  UNL1       -0.2934
     20 H         140.6692  146.7834  162.2202 H       1  UNL1        0.1236
     21 C         141.8839  145.1795  162.5747 C.3     1  UNL1        0.0571
     22 C         142.7231  144.1131  161.9357 C.3     1  UNL1        0.0186
     23 C         143.8632  143.8042  162.8603 C.3     1  UNL1        0.0367
     24 C         143.7285  144.6797  164.0707 C.3     1  UNL1        0.1624
     25 F         144.6546  144.7015  165.2505 F       1  UNL1       -0.2372
     26 C         142.5052  145.5297  163.8943 C.3     1  UNL1        0.0510
@<TRIPOS>BOND
     1     1     2    1
     2     2     3   ar
     3     3     4   ar
     4     4    18    1
     5    18    19    1
     6    21    19    1
     7    21    22    1
     8    22    23    1
     9    23    24    1
    10    24    25    1
    11    24    26    1
    12     4     5   ar
    13     5    15    1
    14    15    16    1
    15    15    17    1
    16     5     6   ar
    17     6     7    1
    18     7     8   ar
    19     8     9   ar
    20     9    10    1
    21     9    11   ar
    22    11    12   ar
    23    12    13    1
    24    12    14   ar
    25     6     2   ar
    26    14     7   ar
    27    26    21    1
    28    19    20    1
@<TRIPOS>MOLECULE
*****
 26 28 0 0 0
SMALL
GASTEIGER

@<TRIPOS>ATOM
      1 C         143.2276  143.4509  164.2725 C.3     1  UNL1        0.0722
      2 C         142.7180  142.1941  164.9133 C.ar    1  UNL1        0.1240
      3 N         143.5598  141.0886  165.4782 N.ar    1  UNL1       -0.2339
      4 C         142.6392  140.0333  166.0157 C.ar    1  UNL1        0.0881
      5 C         141.2285  140.4866  165.7829 C.ar    1  UNL1        0.0569
      6 N         141.2772  141.8221  165.1016 N.ar    1  UNL1       -0.2975
      7 C         140.0928  142.6416  164.6822 C.ar    1  UNL1        0.0692
      8 C         139.5518  143.7005  165.5966 C.ar    1  UNL1        0.0473
      9 C         138.3676  144.5199  165.1772 C.ar    1  UNL1        0.1438
     10 F         137.8265  145.5788  166.0916 F       1  UNL1       -0.2040
     11 C         137.7243  144.2806  163.8434 C.ar    1  UNL1        0.0593
     12 C         138.2653  143.2218  162.9290 C.ar    1  UNL1        0.1438
     13 F         137.6221  142.9824  161.5953 F       1  UNL1       -0.2040
     14 C         139.4496  142.4023  163.3484 C.ar    1  UNL1        0.0473
     15 C         139.9870  139.7363  166.1645 C.3     1  UNL1        0.0399
     16 C         139.2878  140.0495  167.4541 C.3     1  UNL1        0.0063
     17 C         139.4446  138.6726  165.2565 C.3     1  UNL1        0.0063
     18 C         143.0562  138.7500  166.6709 C.3     1  UNL1        0.1163
     19 N         143.2831  138.7037  168.1529 N.3     1  UNL1       -0.2934
     20 H         144.2911  138.7599  168.2984 H       1  UNL1        0.1236
     21 C         142.6592  139.7401  169.0399 C.3     1  UNL1        0.0571
     22 C         141.5758  139.5001  170.0491 C.3     1  UNL1        0.0186
     23 C         141.2562  140.8101  170.7063 C.3     1  UNL1        0.0367
     24 C         142.1421  141.8596  170.1032 C.3     1  UNL1        0.1624
     25 F         142.1581  143.3148  170.4663 F       1  UNL1       -0.2372
     26 C         143.0092  141.1982  169.0733 C.3     1  UNL1        0.0510
@<TRIPOS>BOND
     1     1     2    1
     2     2     3   ar
     3     3     4   ar
     4     4    18    1
     5    18    19    1
     6    21    19    1
     7    21    22    1
     8    22    23    1
     9    23    24    1
    10    24    25    1
    11    24    26    1
    12     4     5   ar
    13     5    15    1
    14    15    16    1
    15    15    17    1
    16     5     6   ar
    17     6     7    1
    18     7     8   ar
    19     8     9   ar
    20     9    10    1
    21     9    11   ar
    22    11    12   ar
    23    12    13    1
    24    12    14   ar
    25     6     2   ar
    26    14     7   ar
    27    26    21    1
    28    19    20    1
@<TRIPOS>MOLECULE
*****
 26 28 0 0 0
SMALL
GASTEIGER

@<TRIPOS>ATOM
      1 C         143.2535  143.1603  163.8238 C.3     1  UNL1        0.0722
      2 C         142.7309  141.9589  164.5542 C.ar    1  UNL1        0.1240
      3 N         143.5557  140.8307  165.0990 N.ar    1  UNL1       -0.2339
      4 C         142.6264  139.8492  165.7495 C.ar    1  UNL1        0.0881
      5 C         141.2273  140.3709  165.6067 C.ar    1  UNL1        0.0569
      6 N         141.2919  141.6748  164.8680 N.ar    1  UNL1       -0.2975
      7 C         140.1227  142.5422  164.5064 C.ar    1  UNL1        0.0692
      8 C         139.4183  142.3440  163.1971 C.ar    1  UNL1        0.0473
      9 C         138.2492  143.2114  162.8356 C.ar    1  UNL1        0.1438
     10 F         137.5448  143.0133  161.5262 F       1  UNL1       -0.2040
     11 C         137.7844  144.2770  163.7836 C.ar    1  UNL1        0.0593
     12 C         138.4888  144.4751  165.0929 C.ar    1  UNL1        0.1438
     13 F         138.0241  145.5407  166.0409 F       1  UNL1       -0.2040
     14 C         139.6580  143.6077  165.4544 C.ar    1  UNL1        0.0473
     15 C         139.9822  139.7055  166.1137 C.3     1  UNL1        0.0399
     16 C         139.3070  138.6500  165.2892 C.3     1  UNL1        0.0063
     17 C         139.4124  140.0956  167.4453 C.3     1  UNL1        0.0063
     18 C         143.0260  138.5706  166.4244 C.3     1  UNL1        0.1163
     19 N         143.4013  138.5745  167.8767 N.3     1  UNL1       -0.2934
     20 H         144.4097  138.7216  167.9198 H       1  UNL1        0.1236
     21 C         142.7781  139.5701  168.8096 C.3     1  UNL1        0.0571
     22 C         142.9584  141.0583  168.7593 C.3     1  UNL1        0.0186
     23 C         142.1570  141.6603  169.8753 C.3     1  UNL1        0.0367
     24 C         141.4815  140.5440  170.6153 C.3     1  UNL1        0.1624
     25 F         140.5803  140.6934  171.8050 F       1  UNL1       -0.2372
     26 C         141.8654  139.2522  169.9567 C.3     1  UNL1        0.0510
@<TRIPOS>BOND
     1     1     2    1
     2     2     3   ar
     3     3     4   ar
     4     4    18    1
     5    18    19    1
     6    21    19    1
     7    21    22    1
     8    22    23    1
     9    23    24    1
    10    24    25    1
    11    24    26    1
    12     4     5   ar
    13     5    15    1
    14    15    16    1
    15    15    17    1
    16     5     6   ar
    17     6     7    1
    18     7     8   ar
    19     8     9   ar
    20     9    10    1
    21     9    11   ar
    22    11    12   ar
    23    12    13    1
    24    12    14   ar
    25     6     2   ar
    26    14     7   ar
    27    26    21    1
    28    19    20    1
@<TRIPOS>MOLECULE
*****
 26 28 0 0 0
SMALL
GASTEIGER

@<TRIPOS>ATOM
      1 C         142.9322  139.2119  166.9077 C.3     1  UNL1        0.0722
      2 C         142.0435  139.8923  165.9091 C.ar    1  UNL1        0.1240
      3 N         142.1267  139.7556  164.4177 N.ar    1  UNL1       -0.2339
      4 C         141.0501  140.6076  163.8133 C.ar    1  UNL1        0.0881
      5 C         140.3017  141.2708  164.9313 C.ar    1  UNL1        0.0569
      6 N         140.9156  140.8287  166.2266 N.ar    1  UNL1       -0.2975
      7 C         140.4783  141.2493  167.5985 C.ar    1  UNL1        0.0692
      8 C         139.6210  140.3371  168.4249 C.ar    1  UNL1        0.0473
      9 C         139.1837  140.7577  169.7967 C.ar    1  UNL1        0.1438
     10 F         138.3264  139.8455  170.6232 F       1  UNL1       -0.2040
     11 C         139.6038  142.0904  170.3421 C.ar    1  UNL1        0.0593
     12 C         140.4610  143.0026  169.5156 C.ar    1  UNL1        0.1438
     13 F         140.8811  144.3353  170.0610 F       1  UNL1       -0.2040
     14 C         140.8983  142.5820  168.1438 C.ar    1  UNL1        0.0473
     15 C         139.1427  142.2111  164.7805 C.3     1  UNL1        0.0399
     16 C         137.8272  141.7041  164.2683 C.3     1  UNL1        0.0063
     17 C         139.2992  143.6585  165.1419 C.3     1  UNL1        0.0063
     18 C         140.7711  140.7682  162.3483 C.3     1  UNL1        0.1163
     19 N         141.4697  141.8398  161.5648 N.3     1  UNL1       -0.2934
     20 H         141.1234  141.7777  160.6074 H       1  UNL1        0.1236
     21 C         141.3420  143.2758  161.9791 C.3     1  UNL1        0.0571
     22 C         142.2372  143.9987  162.9414 C.3     1  UNL1        0.0186
     23 C         141.7452  145.4106  163.0608 C.3     1  UNL1        0.0367
     24 C         140.5459  145.5604  162.1724 C.3     1  UNL1        0.1624
     25 F         139.7378  146.8101  161.9853 F       1  UNL1       -0.2372
     26 C         140.2968  144.2409  161.5038 C.3     1  UNL1        0.0510
@<TRIPOS>BOND
     1     1     2    1
     2     2     3   ar
     3     3     4   ar
     4     4    18    1
     5    18    19    1
     6    21    19    1
     7    21    22    1
     8    22    23    1
     9    23    24    1
    10    24    25    1
    11    24    26    1
    12     4     5   ar
    13     5    15    1
    14    15    16    1
    15    15    17    1
    16     5     6   ar
    17     6     7    1
    18     7     8   ar
    19     8     9   ar
    20     9    10    1
    21     9    11   ar
    22    11    12   ar
    23    12    13    1
    24    12    14   ar
    25     6     2   ar
    26    14     7   ar
    27    26    21    1
    28    19    20    1
@<TRIPOS>MOLECULE
*****
 26 28 0 0 0
SMALL
GASTEIGER

@<TRIPOS>ATOM
      1 C         142.9547  139.0935  167.0663 C.3     1  UNL1        0.0722
      2 C         142.1129  139.7846  166.0348 C.ar    1  UNL1        0.1240
      3 N         142.2433  139.6374  164.5478 N.ar    1  UNL1       -0.2339
      4 C         141.2040  140.5059  163.9031 C.ar    1  UNL1        0.0881
      5 C         140.4313  141.1899  164.9918 C.ar    1  UNL1        0.0569
      6 N         140.9931  140.7440  166.3093 N.ar    1  UNL1       -0.2975
      7 C         140.5184  141.1810  167.6635 C.ar    1  UNL1        0.0692
      8 C         140.9424  142.5103  168.2140 C.ar    1  UNL1        0.0473
      9 C         140.4677  142.9472  169.5681 C.ar    1  UNL1        0.1438
     10 F         140.8918  144.2766  170.1187 F       1  UNL1       -0.2040
     11 C         139.5689  142.0549  170.3717 C.ar    1  UNL1        0.0593
     12 C         139.1448  140.7256  169.8212 C.ar    1  UNL1        0.1438
     13 F         138.2460  139.8332  170.6248 F       1  UNL1       -0.2040
     14 C         139.6195  140.2887  168.4671 C.ar    1  UNL1        0.0473
     15 C         139.2962  142.1510  164.7972 C.3     1  UNL1        0.0399
     16 C         139.4849  143.6068  165.1051 C.3     1  UNL1        0.0063
     17 C         137.9723  141.6561  164.2948 C.3     1  UNL1        0.0063
     18 C         140.9771  140.6630  162.4287 C.3     1  UNL1        0.1163
     19 N         141.7310  141.7082  161.6610 N.3     1  UNL1       -0.2934
     20 H         141.2019  141.8851  160.8071 H       1  UNL1        0.1236
     21 C         142.0059  143.0443  162.2848 C.3     1  UNL1        0.0571
     22 C         141.1963  144.2918  162.0895 C.3     1  UNL1        0.0186
     23 C         141.8287  145.3861  162.8973 C.3     1  UNL1        0.0367
     24 C         143.0293  144.8148  163.5918 C.3     1  UNL1        0.1624
     25 F         143.9573  145.5601  164.5046 F       1  UNL1       -0.2372
     26 C         143.1388  143.3675  163.2132 C.3     1  UNL1        0.0510
@<TRIPOS>BOND
     1     1     2    1
     2     2     3   ar
     3     3     4   ar
     4     4    18    1
     5    18    19    1
     6    21    19    1
     7    21    22    1
     8    22    23    1
     9    23    24    1
    10    24    25    1
    11    24    26    1
    12     4     5   ar
    13     5    15    1
    14    15    16    1
    15    15    17    1
    16     5     6   ar
    17     6     7    1
    18     7     8   ar
    19     8     9   ar
    20     9    10    1
    21     9    11   ar
    22    11    12   ar
    23    12    13    1
    24    12    14   ar
    25     6     2   ar
    26    14     7   ar
    27    26    21    1
    28    19    20    1
@<TRIPOS>MOLECULE
*****
 26 28 0 0 0
SMALL
GASTEIGER

@<TRIPOS>ATOM
      1 C         143.4655  142.4761  166.1331 C.3     1  UNL1        0.0722
      2 C         142.4822  141.6391  165.3700 C.ar    1  UNL1        0.1240
      3 N         142.3408  141.5859  163.8777 N.ar    1  UNL1       -0.2339
      4 C         141.2388  140.6222  163.5505 C.ar    1  UNL1        0.0881
      5 C         140.6992  140.0798  164.8407 C.ar    1  UNL1        0.0569
      6 N         141.4676  140.7083  165.9652 N.ar    1  UNL1       -0.2975
      7 C         141.2583  140.4511  167.4282 C.ar    1  UNL1        0.0692
      8 C         142.2162  139.5755  168.1803 C.ar    1  UNL1        0.0473
      9 C         142.0068  139.3184  169.6432 C.ar    1  UNL1        0.1438
     10 F         142.9647  138.4428  170.3955 F       1  UNL1       -0.2040
     11 C         140.8395  139.9367  170.3538 C.ar    1  UNL1        0.0593
     12 C         139.8816  140.8123  169.6017 C.ar    1  UNL1        0.1438
     13 F         138.7143  141.4306  170.3123 F       1  UNL1       -0.2040
     14 C         140.0910  141.0694  168.1388 C.ar    1  UNL1        0.0473
     15 C         139.5864  139.0839  164.9816 C.3     1  UNL1        0.0399
     16 C         138.2005  139.5500  165.3161 C.3     1  UNL1        0.0063
     17 C         139.8596  137.6217  164.7881 C.3     1  UNL1        0.0063
     18 C         140.7604  140.2638  162.1747 C.3     1  UNL1        0.1163
     19 N         139.4999  140.8733  161.6366 N.3     1  UNL1       -0.2934
     20 H         138.7429  140.2255  161.8554 H       1  UNL1        0.1236
     21 C         139.0608  142.2277  162.1084 C.3     1  UNL1        0.0571
     22 C         137.8691  142.5168  162.9723 C.3     1  UNL1        0.0186
     23 C         137.8081  143.9986  163.1970 C.3     1  UNL1        0.0367
     24 C         138.9620  144.6253  162.4720 C.3     1  UNL1        0.1624
     25 F         139.2850  146.0894  162.4276 F       1  UNL1       -0.2372
     26 C         139.7362  143.5308  161.7992 C.3     1  UNL1        0.0510
@<TRIPOS>BOND
     1     1     2    1
     2     2     3   ar
     3     3     4   ar
     4     4    18    1
     5    18    19    1
     6    21    19    1
     7    21    22    1
     8    22    23    1
     9    23    24    1
    10    24    25    1
    11    24    26    1
    12     4     5   ar
    13     5    15    1
    14    15    16    1
    15    15    17    1
    16     5     6   ar
    17     6     7    1
    18     7     8   ar
    19     8     9   ar
    20     9    10    1
    21     9    11   ar
    22    11    12   ar
    23    12    13    1
    24    12    14   ar
    25     6     2   ar
    26    14     7   ar
    27    26    21    1
    28    19    20    1
@<TRIPOS>MOLECULE
*****
 26 28 0 0 0
SMALL
GASTEIGER

@<TRIPOS>ATOM
      1 C         138.3286  144.3895  165.1096 C.3     1  UNL1        0.0722
      2 C         139.7842  144.1850  164.8109 C.ar    1  UNL1        0.1240
      3 N         140.5725  144.8862  163.7447 N.ar    1  UNL1       -0.2339
      4 C         141.9826  144.3779  163.8008 C.ar    1  UNL1        0.0881
      5 C         142.0659  143.3625  164.9016 C.ar    1  UNL1        0.0569
      6 N         140.7072  143.2432  165.5259 N.ar    1  UNL1       -0.2975
      7 C         140.3365  142.3407  166.6653 C.ar    1  UNL1        0.0692
      8 C         139.6678  141.0258  166.3936 C.ar    1  UNL1        0.0473
      9 C         139.2972  140.1233  167.5329 C.ar    1  UNL1        0.1438
     10 F         138.6284  138.8084  167.2612 F       1  UNL1       -0.2040
     11 C         139.5953  140.5357  168.9440 C.ar    1  UNL1        0.0593
     12 C         140.2641  141.8505  169.2157 C.ar    1  UNL1        0.1438
     13 F         140.5623  142.2629  170.6267 F       1  UNL1       -0.2040
     14 C         140.6347  142.7530  168.0764 C.ar    1  UNL1        0.0473
     15 C         143.2924  142.6002  165.3070 C.3     1  UNL1        0.0399
     16 C         144.5249  143.3376  165.7398 C.3     1  UNL1        0.0063
     17 C         143.2866  141.1005  165.2797 C.3     1  UNL1        0.0063
     18 C         143.1113  144.8093  162.9120 C.3     1  UNL1        0.1163
     19 N         143.3907  144.0653  161.6398 N.3     1  UNL1       -0.2934
     20 H         144.2676  144.4327  161.2704 H       1  UNL1        0.1236
     21 C         143.5206  142.5711  161.6579 C.3     1  UNL1        0.0571
     22 C         144.7777  141.7986  161.9277 C.3     1  UNL1        0.0186
     23 C         144.4502  140.3371  161.8459 C.3     1  UNL1        0.0367
     24 C         142.9907  140.2063  161.5255 C.3     1  UNL1        0.1624
     25 F         142.2379  138.9206  161.3519 F       1  UNL1       -0.2372
     26 C         142.4161  141.5871  161.4094 C.3     1  UNL1        0.0510
@<TRIPOS>BOND
     1     1     2    1
     2     2     3   ar
     3     3     4   ar
     4     4    18    1
     5    18    19    1
     6    21    19    1
     7    21    22    1
     8    22    23    1
     9    23    24    1
    10    24    25    1
    11    24    26    1
    12     4     5   ar
    13     5    15    1
    14    15    16    1
    15    15    17    1
    16     5     6   ar
    17     6     7    1
    18     7     8   ar
    19     8     9   ar
    20     9    10    1
    21     9    11   ar
    22    11    12   ar
    23    12    13    1
    24    12    14   ar
    25     6     2   ar
    26    14     7   ar
    27    26    21    1
    28    19    20    1
@<TRIPOS>MOLECULE
*****
 26 28 0 0 0
SMALL
GASTEIGER

@<TRIPOS>ATOM
      1 C         138.2949  144.2803  164.9931 C.3     1  UNL1        0.0722
      2 C         139.7620  144.1160  164.7273 C.ar    1  UNL1        0.1240
      3 N         140.5516  144.8291  163.6700 N.ar    1  UNL1       -0.2339
      4 C         141.9747  144.3636  163.7613 C.ar    1  UNL1        0.0881
      5 C         142.0645  143.3629  164.8750 C.ar    1  UNL1        0.0569
      6 N         140.6969  143.2099  165.4721 N.ar    1  UNL1       -0.2975
      7 C         140.3290  142.3088  166.6135 C.ar    1  UNL1        0.0692
      8 C         140.6427  142.7170  168.0224 C.ar    1  UNL1        0.0473
      9 C         140.2748  141.8159  169.1638 C.ar    1  UNL1        0.1438
     10 F         140.5885  142.2240  170.5728 F       1  UNL1       -0.2040
     11 C         139.5932  140.5068  168.8963 C.ar    1  UNL1        0.0593
     12 C         139.2795  140.0987  167.4874 C.ar    1  UNL1        0.1438
     13 F         138.5978  138.7896  167.2199 F       1  UNL1       -0.2040
     14 C         139.6474  140.9997  166.3460 C.ar    1  UNL1        0.0473
     15 C         143.3042  142.6419  165.3146 C.3     1  UNL1        0.0399
     16 C         144.5191  143.4202  165.7244 C.3     1  UNL1        0.0063
     17 C         143.3289  141.1424  165.3443 C.3     1  UNL1        0.0063
     18 C         143.1088  144.8190  162.8915 C.3     1  UNL1        0.1163
     19 N         143.4524  144.0559  161.6467 N.3     1  UNL1       -0.2934
     20 H         144.3560  144.4052  161.3272 H       1  UNL1        0.1236
     21 C         143.5566  142.5602  161.6885 C.3     1  UNL1        0.0571
     22 C         144.8049  141.7702  161.9488 C.3     1  UNL1        0.0186
     23 C         144.4505  140.3136  161.8986 C.3     1  UNL1        0.0367
     24 C         142.9832  140.2033  161.6073 C.3     1  UNL1        0.1624
     25 F         142.2050  138.9283  161.4699 F       1  UNL1       -0.2372
     26 C         142.4307  141.5918  161.4775 C.3     1  UNL1        0.0510
@<TRIPOS>BOND
     1     1     2    1
     2     2     3   ar
     3     3     4   ar
     4     4    18    1
     5    18    19    1
     6    21    19    1
     7    21    22    1
     8    22    23    1
     9    23    24    1
    10    24    25    1
    11    24    26    1
    12     4     5   ar
    13     5    15    1
    14    15    16    1
    15    15    17    1
    16     5     6   ar
    17     6     7    1
    18     7     8   ar
    19     8     9   ar
    20     9    10    1
    21     9    11   ar
    22    11    12   ar
    23    12    13    1
    24    12    14   ar
    25     6     2   ar
    26    14     7   ar
    27    26    21    1
    28    19    20    1
