@<TRIPOS>MOLECULE
*****
 33 36 0 0 0
SMALL
GASTEIGER

@<TRIPOS>ATOM
      1 N         139.2191  139.6289  163.6158 N.pl3   1  UNL1       -0.3075
      2 C         139.5424  140.8489  162.8053 C.3     1  UNL1        0.0908
      3 C         139.5237  140.7805  161.3069 C.3     1  UNL1        0.0229
      4 C         139.1817  139.4921  160.6192 C.3     1  UNL1        0.0194
      5 C         138.8585  138.2721  161.4297 C.3     1  UNL1        0.0229
      6 C         138.8771  138.3405  162.9281 C.3     1  UNL1        0.0908
      7 C         139.2751  139.8341  168.1108 C.ar    1  UNL1        0.1392
      8 C         140.3654  140.4900  167.3164 C.ar    1  UNL1        0.0382
      9 C         140.3467  140.4216  165.8181 C.ar    1  UNL1        0.0176
     10 C         139.2378  139.6973  165.1142 C.ar    1  UNL1        0.0480
     11 C         138.1475  139.0414  165.9085 C.ar    1  UNL1        0.0176
     12 C         138.1662  139.1098  167.4068 C.ar    1  UNL1        0.0382
     13 O         139.2938  139.9025  169.6091 O.3     1  UNL1       -0.4694
     14 C         140.5254  140.3752  170.3230 C.3     1  UNL1        0.2469
     15 O         139.3213  142.5952  170.9325 O.co2   1  UNL1       -0.5454
     16 C         140.5300  141.7101  171.0070 C.2     1  UNL1        0.0940
     17 O         141.7434  142.1600  171.7655 O.co2   1  UNL1       -0.5454
     18 C         139.1631  139.4237  159.1209 C.3     1  UNL1        0.0722
     19 N         140.1642  138.5736  158.3963 N.3     1  UNL1       -0.2724
     20 C         141.5667  138.4588  158.9162 C.3     1  UNL1        0.0758
     21 C         142.5678  137.6088  158.1917 C.3     1  UNL1        0.0609
     22 C         142.1667  136.8734  156.9473 C.3     1  UNL1        0.1687
     23 C         140.7644  136.9882  156.4275 C.3     1  UNL1        0.0609
     24 C         139.7631  137.8383  157.1520 C.3     1  UNL1        0.0758
     25 O         143.1679  136.0233  156.2228 O.3     1  UNL1       -0.4790
     26 C         143.1021  134.5288  156.3325 C.ar    1  UNL1        0.1393
     27 C         142.0188  133.7717  155.6231 C.ar    1  UNL1        0.0378
     28 C         141.9529  132.2772  155.7328 C.ar    1  UNL1        0.0154
     29 C         142.9703  131.5397  156.5520 C.ar    1  UNL1        0.0684
     30 CL        142.9045  130.0452  156.6618 Cl      1  UNL1       -0.0814
     31 C         144.0536  132.2969  157.2615 C.ar    1  UNL1        0.0712
     32 CL        145.0710  131.5595  158.0807 Cl      1  UNL1       -0.0813
     33 C         144.1195  133.7914  157.1517 C.ar    1  UNL1        0.0491
@<TRIPOS>UNITY_ATOM_ATTR
15 1
charge -1
@<TRIPOS>BOND
     1    15    16   ar
     2    16    17   ar
     3    16    14    1
     4    14    13    1
     5    13     7    1
     6     7     8   ar
     7     8     9   ar
     8     9    10   ar
     9    10     1    1
    10     1     2    1
    11     2     3    1
    12     3     4    1
    13     4    18    1
    14    18    19    1
    15    19    20    1
    16    20    21    1
    17    21    22    1
    18    22    25    1
    19    25    26    1
    20    26    27   ar
    21    27    28   ar
    22    28    29   ar
    23    29    30    1
    24    29    31   ar
    25    31    32    1
    26    31    33   ar
    27    22    23    1
    28    23    24    1
    29     4     5    1
    30     5     6    1
    31    10    11   ar
    32    11    12   ar
    33    12     7   ar
    34     6     1    1
    35    24    19    1
    36    33    26   ar
@<TRIPOS>MOLECULE
*****
 33 36 0 0 0
SMALL
GASTEIGER

@<TRIPOS>ATOM
      1 N         140.8332  139.5074  163.7600 N.pl3   1  UNL1       -0.3075
      2 C         141.3114  140.6106  162.8632 C.3     1  UNL1        0.0908
      3 C         140.9567  140.5993  161.4058 C.3     1  UNL1        0.0229
      4 C         140.1238  139.4849  160.8452 C.3     1  UNL1        0.0194
      5 C         139.6456  138.3818  161.7420 C.3     1  UNL1        0.0229
      6 C         140.0003  138.3930  163.1995 C.3     1  UNL1        0.0908
      7 C         141.8973  139.5413  168.1323 C.ar    1  UNL1        0.1392
      8 C         140.5364  139.9893  167.6881 C.ar    1  UNL1        0.0382
      9 C         140.1818  139.9781  166.2307 C.ar    1  UNL1        0.0176
     10 C         141.1879  139.5187  165.2175 C.ar    1  UNL1        0.0480
     11 C         142.5487  139.0707  165.6617 C.ar    1  UNL1        0.0176
     12 C         142.9034  139.0820  167.1191 C.ar    1  UNL1        0.0382
     13 O         142.2520  139.5526  169.5897 O.3     1  UNL1       -0.4694
     14 C         141.9914  140.7773  170.4155 C.3     1  UNL1        0.2469
     15 O         140.4683  142.1109  172.0439 O.co2   1  UNL1       -0.5454
     16 C         140.7268  140.8881  171.2146 C.2     1  UNL1        0.0940
     17 O         139.7207  139.7759  171.1843 O.co2   1  UNL1       -0.5454
     18 C         139.7691  139.4736  159.3878 C.3     1  UNL1        0.0722
     19 N         140.4883  138.5519  158.4480 N.3     1  UNL1       -0.2724
     20 C         139.7591  137.9496  157.2836 C.3     1  UNL1        0.0758
     21 C         140.4783  137.0279  156.3438 C.3     1  UNL1        0.0609
     22 C         141.9266  136.7085  156.5683 C.3     1  UNL1        0.1687
     23 C         142.6558  137.3108  157.7326 C.3     1  UNL1        0.0609
     24 C         141.9366  138.2325  158.6725 C.3     1  UNL1        0.0758
     25 O         142.6458  135.7868  155.6284 O.3     1  UNL1       -0.4790
     26 C         142.8494  134.3476  155.9986 C.ar    1  UNL1        0.1393
     27 C         141.8880  133.3045  155.5110 C.ar    1  UNL1        0.0378
     28 C         142.0916  131.8652  155.8813 C.ar    1  UNL1        0.0154
     29 C         143.2567  131.4690  156.7391 C.ar    1  UNL1        0.0684
     30 CL        143.4603  130.0298  157.1094 Cl      1  UNL1       -0.0814
     31 C         144.2180  132.5121  157.2267 C.ar    1  UNL1        0.0712
     32 CL        145.3830  132.1160  158.0846 Cl      1  UNL1       -0.0813
     33 C         144.0144  133.9514  156.8565 C.ar    1  UNL1        0.0491
@<TRIPOS>UNITY_ATOM_ATTR
15 1
charge -1
@<TRIPOS>BOND
     1    15    16   ar
     2    16    17   ar
     3    16    14    1
     4    14    13    1
     5    13     7    1
     6     7     8   ar
     7     8     9   ar
     8     9    10   ar
     9    10     1    1
    10     1     2    1
    11     2     3    1
    12     3     4    1
    13     4    18    1
    14    18    19    1
    15    19    20    1
    16    20    21    1
    17    21    22    1
    18    22    25    1
    19    25    26    1
    20    26    27   ar
    21    27    28   ar
    22    28    29   ar
    23    29    30    1
    24    29    31   ar
    25    31    32    1
    26    31    33   ar
    27    22    23    1
    28    23    24    1
    29     4     5    1
    30     5     6    1
    31    10    11   ar
    32    11    12   ar
    33    12     7   ar
    34     6     1    1
    35    24    19    1
    36    33    26   ar
@<TRIPOS>MOLECULE
*****
 33 36 0 0 0
SMALL
GASTEIGER

@<TRIPOS>ATOM
      1 N         139.5677  140.6276  164.5286 N.pl3   1  UNL1       -0.3075
      2 C         140.1244  141.5202  163.4593 C.3     1  UNL1        0.0908
      3 C         139.8603  141.2147  162.0147 C.3     1  UNL1        0.0229
      4 C         139.0397  140.0166  161.6393 C.3     1  UNL1        0.0194
      5 C         138.4830  139.1240  162.7086 C.3     1  UNL1        0.0229
      6 C         138.7470  139.4295  164.1532 C.3     1  UNL1        0.0908
      7 C         140.3598  141.5441  168.8625 C.ar    1  UNL1        0.1392
      8 C         139.9146  140.1708  168.4555 C.ar    1  UNL1        0.0382
      9 C         139.6505  139.8653  167.0109 C.ar    1  UNL1        0.0176
     10 C         139.8317  140.9331  165.9732 C.ar    1  UNL1        0.0480
     11 C         140.2770  142.3065  166.3802 C.ar    1  UNL1        0.0176
     12 C         140.5410  142.6120  167.8248 C.ar    1  UNL1        0.0382
     13 O         140.6238  141.8496  170.3071 O.3     1  UNL1       -0.4694
     14 C         142.0287  141.8334  170.8325 C.3     1  UNL1        0.2469
     15 O         143.7275  142.6052  169.0247 O.co2   1  UNL1       -0.5454
     16 C         143.0282  142.8335  170.3319 C.2     1  UNL1        0.0940
     17 O         143.3285  144.0621  171.1385 O.co2   1  UNL1       -0.5454
     18 C         138.7756  139.7111  160.1947 C.3     1  UNL1        0.0722
     19 N         139.8172  139.0102  159.3738 N.3     1  UNL1       -0.2724
     20 C         139.5624  138.7252  157.9233 C.3     1  UNL1        0.0758
     21 C         140.6039  138.0244  157.1024 C.3     1  UNL1        0.0609
     22 C         141.9003  137.6084  157.7320 C.3     1  UNL1        0.1687
     23 C         142.1551  137.8933  159.1824 C.3     1  UNL1        0.0609
     24 C         141.1136  138.5942  160.0034 C.3     1  UNL1        0.0758
     25 O         142.9419  136.9074  156.9110 O.3     1  UNL1       -0.4790
     26 C         142.8307  135.4331  156.6584 C.ar    1  UNL1        0.1393
     27 C         141.7932  134.9108  155.7093 C.ar    1  UNL1        0.0378
     28 C         141.6821  133.4365  155.4567 C.ar    1  UNL1        0.0154
     29 C         142.6085  132.4842  156.1533 C.ar    1  UNL1        0.0684
     30 CL        142.4973  131.0099  155.9007 Cl      1  UNL1       -0.0814
     31 C         143.6460  133.0065  157.1024 C.ar    1  UNL1        0.0712
     32 CL        144.5724  132.0543  157.7989 Cl      1  UNL1       -0.0813
     33 C         143.7571  134.4809  157.3550 C.ar    1  UNL1        0.0491
@<TRIPOS>UNITY_ATOM_ATTR
15 1
charge -1
@<TRIPOS>BOND
     1    15    16   ar
     2    16    17   ar
     3    16    14    1
     4    14    13    1
     5    13     7    1
     6     7     8   ar
     7     8     9   ar
     8     9    10   ar
     9    10     1    1
    10     1     2    1
    11     2     3    1
    12     3     4    1
    13     4    18    1
    14    18    19    1
    15    19    20    1
    16    20    21    1
    17    21    22    1
    18    22    25    1
    19    25    26    1
    20    26    27   ar
    21    27    28   ar
    22    28    29   ar
    23    29    30    1
    24    29    31   ar
    25    31    32    1
    26    31    33   ar
    27    22    23    1
    28    23    24    1
    29     4     5    1
    30     5     6    1
    31    10    11   ar
    32    11    12   ar
    33    12     7   ar
    34     6     1    1
    35    24    19    1
    36    33    26   ar
@<TRIPOS>MOLECULE
*****
 33 36 0 0 0
SMALL
GASTEIGER

@<TRIPOS>ATOM
      1 N         139.9688  140.1885  162.9952 N.pl3   1  UNL1       -0.3075
      2 C         139.3114  138.9035  162.5870 C.3     1  UNL1        0.0908
      3 C         139.0730  138.6111  161.1353 C.3     1  UNL1        0.0229
      4 C         139.4920  139.6036  160.0916 C.3     1  UNL1        0.0194
      5 C         140.1494  140.8886  160.4997 C.3     1  UNL1        0.0229
      6 C         140.3878  141.1811  161.9515 C.3     1  UNL1        0.0908
      7 C         140.6839  141.0659  167.3505 C.ar    1  UNL1        0.1392
      8 C         140.8391  142.1549  166.3307 C.ar    1  UNL1        0.0382
      9 C         140.6007  141.8624  164.8789 C.ar    1  UNL1        0.0176
     10 C         140.2072  140.4810  164.4469 C.ar    1  UNL1        0.0480
     11 C         140.0520  139.3920  165.4667 C.ar    1  UNL1        0.0176
     12 C         140.2904  139.6844  166.9185 C.ar    1  UNL1        0.0382
     13 O         140.9223  141.3583  168.8023 O.3     1  UNL1       -0.4694
     14 C         139.7798  141.7732  169.6812 C.3     1  UNL1        0.2469
     15 O         140.5578  142.2086  172.1215 O.co2   1  UNL1       -0.5454
     16 C         140.0153  142.7205  170.8201 C.2     1  UNL1        0.0940
     17 O         139.7083  144.1797  170.6576 O.co2   1  UNL1       -0.5454
     18 C         139.2537  139.3112  158.6398 C.3     1  UNL1        0.0722
     19 N         140.1828  138.3981  157.8963 N.3     1  UNL1       -0.2724
     20 C         139.6864  137.6282  156.7084 C.3     1  UNL1        0.0758
     21 C         140.6155  136.7150  155.9649 C.3     1  UNL1        0.0609
     22 C         142.0410  136.5718  156.4091 C.3     1  UNL1        0.1687
     23 C         142.5374  137.3416  157.5969 C.3     1  UNL1        0.0609
     24 C         141.6083  138.2548  158.3406 C.3     1  UNL1        0.0758
     25 O         142.9702  135.6586  155.6655 O.3     1  UNL1       -0.4790
     26 C         143.0180  134.1984  156.0055 C.ar    1  UNL1        0.1393
     27 C         141.9740  133.2676  155.4636 C.ar    1  UNL1        0.0378
     28 C         142.0218  131.8075  155.8036 C.ar    1  UNL1        0.0154
     29 C         143.1136  131.2780  156.6854 C.ar    1  UNL1        0.0684
     30 CL        143.1614  129.8179  157.0253 Cl      1  UNL1       -0.0814
     31 C         144.1577  132.2088  157.2273 C.ar    1  UNL1        0.0712
     32 CL        145.2495  131.6795  158.1091 Cl      1  UNL1       -0.0813
     33 C         144.1098  133.6691  156.8873 C.ar    1  UNL1        0.0491
@<TRIPOS>UNITY_ATOM_ATTR
15 1
charge -1
@<TRIPOS>BOND
     1    15    16   ar
     2    16    17   ar
     3    16    14    1
     4    14    13    1
     5    13     7    1
     6     7     8   ar
     7     8     9   ar
     8     9    10   ar
     9    10     1    1
    10     1     2    1
    11     2     3    1
    12     3     4    1
    13     4    18    1
    14    18    19    1
    15    19    20    1
    16    20    21    1
    17    21    22    1
    18    22    25    1
    19    25    26    1
    20    26    27   ar
    21    27    28   ar
    22    28    29   ar
    23    29    30    1
    24    29    31   ar
    25    31    32    1
    26    31    33   ar
    27    22    23    1
    28    23    24    1
    29     4     5    1
    30     5     6    1
    31    10    11   ar
    32    11    12   ar
    33    12     7   ar
    34     6     1    1
    35    24    19    1
    36    33    26   ar
@<TRIPOS>MOLECULE
*****
 33 36 0 0 0
SMALL
GASTEIGER

@<TRIPOS>ATOM
      1 N         143.0949  141.0472  163.5125 N.pl3   1  UNL1       -0.3075
      2 C         142.2033  141.8888  162.6483 C.3     1  UNL1        0.0908
      3 C         142.3519  141.8508  161.1562 C.3     1  UNL1        0.0229
      4 C         143.3920  140.9712  160.5282 C.3     1  UNL1        0.0194
      5 C         144.2835  140.1295  161.3923 C.3     1  UNL1        0.0229
      6 C         144.1349  140.1676  162.8845 C.3     1  UNL1        0.0908
      7 C         142.6492  141.1613  167.9889 C.ar    1  UNL1        0.1392
      8 C         143.0395  142.4022  167.2422 C.ar    1  UNL1        0.0382
      9 C         143.1880  142.3642  165.7500 C.ar    1  UNL1        0.0176
     10 C         142.9463  141.0852  165.0046 C.ar    1  UNL1        0.0480
     11 C         142.5561  139.8442  165.7513 C.ar    1  UNL1        0.0176
     12 C         142.4075  139.8823  167.2435 C.ar    1  UNL1        0.0382
     13 O         142.5007  141.1993  169.4810 O.3     1  UNL1       -0.4694
     14 C         142.2743  142.5075  170.1791 C.3     1  UNL1        0.2469
     15 O         140.5206  141.9876  172.0242 O.co2   1  UNL1       -0.5454
     16 C         140.9543  142.7899  170.8333 C.2     1  UNL1        0.0940
     17 O         140.0682  143.8747  170.2966 O.co2   1  UNL1       -0.5454
     18 C         143.5405  140.9331  159.0360 C.3     1  UNL1        0.0722
     19 N         143.0366  139.7512  158.2620 N.3     1  UNL1       -0.2724
     20 C         143.5775  139.4658  156.8923 C.3     1  UNL1        0.0758
     21 C         143.0736  138.2838  156.1183 C.3     1  UNL1        0.0609
     22 C         142.0289  137.3873  156.7140 C.3     1  UNL1        0.1687
     23 C         141.4881  137.6727  158.0836 C.3     1  UNL1        0.0609
     24 C         141.9919  138.8547  158.8577 C.3     1  UNL1        0.0758
     25 O         141.5251  136.2053  155.9399 O.3     1  UNL1       -0.4790
     26 C         142.3336  134.9430  155.8876 C.ar    1  UNL1        0.1393
     27 C         142.2416  134.0423  154.6917 C.ar    1  UNL1        0.0378
     28 C         143.0502  132.7800  154.6395 C.ar    1  UNL1        0.0154
     29 C         143.9509  132.4184  155.7832 C.ar    1  UNL1        0.0684
     30 CL        144.7594  131.1561  155.7309 Cl      1  UNL1       -0.0814
     31 C         144.0429  133.3191  156.9791 C.ar    1  UNL1        0.0712
     32 CL        144.9435  132.9575  158.1228 Cl      1  UNL1       -0.0813
     33 C         143.2343  134.5815  157.0313 C.ar    1  UNL1        0.0491
@<TRIPOS>UNITY_ATOM_ATTR
15 1
charge -1
@<TRIPOS>BOND
     1    15    16   ar
     2    16    17   ar
     3    16    14    1
     4    14    13    1
     5    13     7    1
     6     7     8   ar
     7     8     9   ar
     8     9    10   ar
     9    10     1    1
    10     1     2    1
    11     2     3    1
    12     3     4    1
    13     4    18    1
    14    18    19    1
    15    19    20    1
    16    20    21    1
    17    21    22    1
    18    22    25    1
    19    25    26    1
    20    26    27   ar
    21    27    28   ar
    22    28    29   ar
    23    29    30    1
    24    29    31   ar
    25    31    32    1
    26    31    33   ar
    27    22    23    1
    28    23    24    1
    29     4     5    1
    30     5     6    1
    31    10    11   ar
    32    11    12   ar
    33    12     7   ar
    34     6     1    1
    35    24    19    1
    36    33    26   ar
@<TRIPOS>MOLECULE
*****
 33 36 0 0 0
SMALL
GASTEIGER

@<TRIPOS>ATOM
      1 N         143.0130  140.2153  163.3357 N.pl3   1  UNL1       -0.3075
      2 C         143.9337  139.2507  162.6489 C.3     1  UNL1        0.0908
      3 C         144.1989  139.3843  161.1786 C.3     1  UNL1        0.0229
      4 C         143.5433  140.4826  160.3951 C.3     1  UNL1        0.0194
      5 C         142.6226  141.4473  161.0819 C.3     1  UNL1        0.0229
      6 C         142.3575  141.3136  162.5522 C.3     1  UNL1        0.0908
      7 C         142.2175  139.8144  167.7467 C.ar    1  UNL1        0.1392
      8 C         143.1267  138.8409  167.0570 C.ar    1  UNL1        0.0382
      9 C         143.3919  138.9746  165.5867 C.ar    1  UNL1        0.0176
     10 C         142.7478  140.0817  164.8060 C.ar    1  UNL1        0.0480
     11 C         141.8386  141.0551  165.4957 C.ar    1  UNL1        0.0176
     12 C         141.5735  140.9215  166.9660 C.ar    1  UNL1        0.0382
     13 O         141.9523  139.6807  169.2170 O.3     1  UNL1       -0.4694
     14 C         142.8005  140.4279  170.2030 C.3     1  UNL1        0.2469
     15 O         142.9126  142.9449  169.5691 O.co2   1  UNL1       -0.5454
     16 C         142.4956  141.8620  170.5196 C.2     1  UNL1        0.0940
     17 O         141.7737  142.2133  171.7867 O.co2   1  UNL1       -0.5454
     18 C         143.8085  140.6163  158.9248 C.3     1  UNL1        0.0722
     19 N         143.4853  139.4818  157.9982 N.3     1  UNL1       -0.2724
     20 C         142.5591  138.3895  158.4445 C.3     1  UNL1        0.0758
     21 C         142.2359  137.2551  157.5180 C.3     1  UNL1        0.0609
     22 C         142.8388  137.2129  156.1451 C.3     1  UNL1        0.1687
     23 C         143.7649  138.3052  155.6988 C.3     1  UNL1        0.0609
     24 C         144.0882  139.4397  156.6254 C.3     1  UNL1        0.0758
     25 O         142.5155  136.0784  155.2185 O.3     1  UNL1       -0.4790
     26 C         142.6732  134.6614  155.6844 C.ar    1  UNL1        0.1393
     27 C         141.6649  133.6245  155.2867 C.ar    1  UNL1        0.0378
     28 C         141.8226  132.2074  155.7525 C.ar    1  UNL1        0.0154
     29 C         142.9887  131.8272  156.6161 C.ar    1  UNL1        0.0684
     30 CL        143.1464  130.4101  157.0819 Cl      1  UNL1       -0.0814
     31 C         143.9970  132.8641  157.0138 C.ar    1  UNL1        0.0712
     32 CL        145.1630  132.4839  157.8774 Cl      1  UNL1       -0.0813
     33 C         143.8392  134.2812  156.5479 C.ar    1  UNL1        0.0491
@<TRIPOS>UNITY_ATOM_ATTR
15 1
charge -1
@<TRIPOS>BOND
     1    15    16   ar
     2    16    17   ar
     3    16    14    1
     4    14    13    1
     5    13     7    1
     6     7     8   ar
     7     8     9   ar
     8     9    10   ar
     9    10     1    1
    10     1     2    1
    11     2     3    1
    12     3     4    1
    13     4    18    1
    14    18    19    1
    15    19    20    1
    16    20    21    1
    17    21    22    1
    18    22    25    1
    19    25    26    1
    20    26    27   ar
    21    27    28   ar
    22    28    29   ar
    23    29    30    1
    24    29    31   ar
    25    31    32    1
    26    31    33   ar
    27    22    23    1
    28    23    24    1
    29     4     5    1
    30     5     6    1
    31    10    11   ar
    32    11    12   ar
    33    12     7   ar
    34     6     1    1
    35    24    19    1
    36    33    26   ar
@<TRIPOS>MOLECULE
*****
 33 36 0 0 0
SMALL
GASTEIGER

@<TRIPOS>ATOM
      1 N         139.6491  140.2790  162.9382 N.pl3   1  UNL1       -0.3075
      2 C         138.6716  139.7128  161.9514 C.3     1  UNL1        0.0908
      3 C         138.8845  139.9210  160.4812 C.3     1  UNL1        0.0229
      4 C         140.0748  140.6953  159.9979 C.3     1  UNL1        0.0194
      5 C         141.0523  141.2614  160.9848 C.3     1  UNL1        0.0229
      6 C         140.8394  141.0532  162.4550 C.3     1  UNL1        0.0908
      7 C         139.0106  139.6545  167.3487 C.ar    1  UNL1        0.1392
      8 C         138.2419  138.8338  166.3560 C.ar    1  UNL1        0.0382
      9 C         138.4547  139.0420  164.8859 C.ar    1  UNL1        0.0176
     10 C         139.4363  140.0708  164.4084 C.ar    1  UNL1        0.0480
     11 C         140.2051  140.8914  165.4011 C.ar    1  UNL1        0.0176
     12 C         139.9922  140.6833  166.8713 C.ar    1  UNL1        0.0382
     13 O         138.7978  139.4463  168.8189 O.3     1  UNL1       -0.4694
     14 C         139.1917  140.5170  169.7927 C.3     1  UNL1        0.2469
     15 O         140.6227  141.1975  171.8516 O.co2   1  UNL1       -0.5454
     16 C         140.4284  140.3549  170.6260 C.2     1  UNL1        0.0940
     17 O         141.4708  139.3502  170.2335 O.co2   1  UNL1       -0.5454
     18 C         140.2876  140.9035  158.5278 C.3     1  UNL1        0.0722
     19 N         139.1153  140.8974  157.5920 N.3     1  UNL1       -0.2724
     20 C         138.0866  141.9863  157.6715 C.3     1  UNL1        0.0758
     21 C         136.9144  141.9803  156.7357 C.3     1  UNL1        0.0609
     22 C         136.7707  140.8855  155.7204 C.3     1  UNL1        0.1687
     23 C         137.7994  139.7967  155.6409 C.3     1  UNL1        0.0609
     24 C         138.9717  139.8026  156.5767 C.3     1  UNL1        0.0758
     25 O         135.5984  140.8795  154.7846 O.3     1  UNL1       -0.4790
     26 C         134.2167  140.6354  155.3149 C.ar    1  UNL1        0.1393
     27 C         133.9550  139.4649  156.2157 C.ar    1  UNL1        0.0378
     28 C         132.5733  139.2208  156.7460 C.ar    1  UNL1        0.0154
     29 C         131.4532  140.1472  156.3755 C.ar    1  UNL1        0.0684
     30 CL        130.0715  139.9031  156.9058 Cl      1  UNL1       -0.0814
     31 C         131.7149  141.3177  155.4747 C.ar    1  UNL1        0.0712
     32 CL        130.5949  142.2441  155.1042 Cl      1  UNL1       -0.0813
     33 C         133.0967  141.5618  154.9444 C.ar    1  UNL1        0.0491
@<TRIPOS>UNITY_ATOM_ATTR
15 1
charge -1
@<TRIPOS>BOND
     1    15    16   ar
     2    16    17   ar
     3    16    14    1
     4    14    13    1
     5    13     7    1
     6     7     8   ar
     7     8     9   ar
     8     9    10   ar
     9    10     1    1
    10     1     2    1
    11     2     3    1
    12     3     4    1
    13     4    18    1
    14    18    19    1
    15    19    20    1
    16    20    21    1
    17    21    22    1
    18    22    25    1
    19    25    26    1
    20    26    27   ar
    21    27    28   ar
    22    28    29   ar
    23    29    30    1
    24    29    31   ar
    25    31    32    1
    26    31    33   ar
    27    22    23    1
    28    23    24    1
    29     4     5    1
    30     5     6    1
    31    10    11   ar
    32    11    12   ar
    33    12     7   ar
    34     6     1    1
    35    24    19    1
    36    33    26   ar
@<TRIPOS>MOLECULE
*****
 33 36 0 0 0
SMALL
GASTEIGER

@<TRIPOS>ATOM
      1 N         140.3307  139.1115  164.9326 N.pl3   1  UNL1       -0.3075
      2 C         140.7428  140.0240  163.8157 C.3     1  UNL1        0.0908
      3 C         140.3517  139.7047  162.4033 C.3     1  UNL1        0.0229
      4 C         139.5484  138.4729  162.1077 C.3     1  UNL1        0.0194
      5 C         139.1363  137.5604  163.2245 C.3     1  UNL1        0.0229
      6 C         139.5274  137.8797  164.6370 C.3     1  UNL1        0.0908
      7 C         141.5042  140.0693  169.1700 C.ar    1  UNL1        0.1392
      8 C         140.0694  140.1778  168.7463 C.ar    1  UNL1        0.0382
      9 C         139.6783  139.8586  167.3339 C.ar    1  UNL1        0.0176
     10 C         140.7219  139.4307  166.3451 C.ar    1  UNL1        0.0480
     11 C         142.1567  139.3222  166.7687 C.ar    1  UNL1        0.0176
     12 C         142.5478  139.6414  168.1812 C.ar    1  UNL1        0.0382
     13 O         141.8954  140.3885  170.5825 O.3     1  UNL1       -0.4694
     14 C         141.6568  141.7627  171.1344 C.3     1  UNL1        0.2469
     15 O         143.3979  142.9652  169.6268 O.co2   1  UNL1       -0.5454
     16 C         142.0857  142.9695  170.3535 C.2     1  UNL1        0.0940
     17 O         141.2023  144.1806  170.2994 O.co2   1  UNL1       -0.5454
     18 C         139.1572  138.1537  160.6952 C.3     1  UNL1        0.0722
     19 N         139.5464  139.0800  159.5815 N.3     1  UNL1       -0.2724
     20 C         138.6132  140.1744  159.1554 C.3     1  UNL1        0.0758
     21 C         139.0024  141.1007  158.0418 C.3     1  UNL1        0.0609
     22 C         140.3249  140.9328  157.3542 C.3     1  UNL1        0.1687
     23 C         141.2581  139.8386  157.7802 C.3     1  UNL1        0.0609
     24 C         140.8689  138.9121  158.8939 C.3     1  UNL1        0.0758
     25 O         140.7141  141.8593  156.2404 O.3     1  UNL1       -0.4790
     26 C         140.2932  143.2984  156.2803 C.ar    1  UNL1        0.1393
     27 C         141.0525  144.2788  157.1242 C.ar    1  UNL1        0.0378
     28 C         140.6316  145.7180  157.1641 C.ar    1  UNL1        0.0154
     29 C         139.4513  146.1768  156.3600 C.ar    1  UNL1        0.0684
     30 CL        139.0304  147.6159  156.3999 Cl      1  UNL1       -0.0814
     31 C         138.6919  145.1963  155.5161 C.ar    1  UNL1        0.0712
     32 CL        137.5117  145.6551  154.7121 Cl      1  UNL1       -0.0813
     33 C         139.1129  143.7571  155.4763 C.ar    1  UNL1        0.0491
@<TRIPOS>UNITY_ATOM_ATTR
15 1
charge -1
@<TRIPOS>BOND
     1    15    16   ar
     2    16    17   ar
     3    16    14    1
     4    14    13    1
     5    13     7    1
     6     7     8   ar
     7     8     9   ar
     8     9    10   ar
     9    10     1    1
    10     1     2    1
    11     2     3    1
    12     3     4    1
    13     4    18    1
    14    18    19    1
    15    19    20    1
    16    20    21    1
    17    21    22    1
    18    22    25    1
    19    25    26    1
    20    26    27   ar
    21    27    28   ar
    22    28    29   ar
    23    29    30    1
    24    29    31   ar
    25    31    32    1
    26    31    33   ar
    27    22    23    1
    28    23    24    1
    29     4     5    1
    30     5     6    1
    31    10    11   ar
    32    11    12   ar
    33    12     7   ar
    34     6     1    1
    35    24    19    1
    36    33    26   ar
@<TRIPOS>MOLECULE
*****
 33 36 0 0 0
SMALL
GASTEIGER

@<TRIPOS>ATOM
      1 N         140.2553  141.5146  163.4712 N.pl3   1  UNL1       -0.3075
      2 C         140.7628  140.7207  162.3041 C.3     1  UNL1        0.0908
      3 C         140.0774  140.8214  160.9737 C.3     1  UNL1        0.0229
      4 C         138.8845  141.7159  160.8104 C.3     1  UNL1        0.0194
      5 C         138.3770  142.5098  161.9775 C.3     1  UNL1        0.0229
      6 C         139.0624  142.4091  163.3079 C.3     1  UNL1        0.0908
      7 C         142.3117  141.2127  167.4625 C.ar    1  UNL1        0.1392
      8 C         141.4470  140.0872  166.9772 C.ar    1  UNL1        0.0382
      9 C         140.7616  140.1878  165.6468 C.ar    1  UNL1        0.0176
     10 C         140.9408  141.4140  164.8016 C.ar    1  UNL1        0.0480
     11 C         141.8054  142.5395  165.2869 C.ar    1  UNL1        0.0176
     12 C         142.4909  142.4389  166.6173 C.ar    1  UNL1        0.0382
     13 O         142.9971  141.1121  168.7929 O.3     1  UNL1       -0.4694
     14 C         143.1210  142.3251  169.6665 C.3     1  UNL1        0.2469
     15 O         141.0786  143.8833  170.0546 O.co2   1  UNL1       -0.5454
     16 C         141.9621  142.7612  170.5131 C.2     1  UNL1        0.0940
     17 O         141.6866  142.0750  171.8183 O.co2   1  UNL1       -0.5454
     18 C         138.1990  141.8165  159.4799 C.3     1  UNL1        0.0722
     19 N         138.7094  142.7734  158.4438 N.3     1  UNL1       -0.2724
     20 C         139.9261  143.6046  158.7249 C.3     1  UNL1        0.0758
     21 C         140.4365  144.5615  157.6887 C.3     1  UNL1        0.0609
     22 C         139.7303  144.6874  156.3714 C.3     1  UNL1        0.1687
     23 C         138.5137  143.8563  156.0902 C.3     1  UNL1        0.0609
     24 C         138.0032  142.8993  157.1264 C.3     1  UNL1        0.0758
     25 O         140.2408  145.6444  155.3352 O.3     1  UNL1       -0.4790
     26 C         139.7900  147.0749  155.3486 C.ar    1  UNL1        0.1393
     27 C         140.0378  147.9506  154.1562 C.ar    1  UNL1        0.0378
     28 C         139.5871  149.3812  154.1696 C.ar    1  UNL1        0.0154
     29 C         138.8884  149.9362  155.3755 C.ar    1  UNL1        0.0684
     30 CL        138.4377  151.3667  155.3889 Cl      1  UNL1       -0.0814
     31 C         138.6406  149.0605  156.5679 C.ar    1  UNL1        0.0712
     32 CL        137.9421  149.6154  157.7737 Cl      1  UNL1       -0.0813
     33 C         139.0914  147.6298  156.5544 C.ar    1  UNL1        0.0491
@<TRIPOS>UNITY_ATOM_ATTR
15 1
charge -1
@<TRIPOS>BOND
     1    15    16   ar
     2    16    17   ar
     3    16    14    1
     4    14    13    1
     5    13     7    1
     6     7     8   ar
     7     8     9   ar
     8     9    10   ar
     9    10     1    1
    10     1     2    1
    11     2     3    1
    12     3     4    1
    13     4    18    1
    14    18    19    1
    15    19    20    1
    16    20    21    1
    17    21    22    1
    18    22    25    1
    19    25    26    1
    20    26    27   ar
    21    27    28   ar
    22    28    29   ar
    23    29    30    1
    24    29    31   ar
    25    31    32    1
    26    31    33   ar
    27    22    23    1
    28    23    24    1
    29     4     5    1
    30     5     6    1
    31    10    11   ar
    32    11    12   ar
    33    12     7   ar
    34     6     1    1
    35    24    19    1
    36    33    26   ar
