@<TRIPOS>MOLECULE
*****
 41 45 0 0 0
SMALL
GASTEIGER

@<TRIPOS>ATOM
      1 C         142.1226  142.0908  161.8822 C.2     1  UNL1        0.2894
      2 O         141.6994  140.8494  162.6101 O.2     1  UNL1       -0.2688
      3 N         142.8645  143.1716  162.6113 N.am    1  UNL1       -0.1703
      4 N         143.3494  144.4617  162.0193 N.2     1  UNL1       -0.1783
      5 C         144.0364  145.2394  163.1025 C.2     1  UNL1        0.0938
      6 C         143.9760  144.4300  164.3639 C.3     1  UNL1        0.0799
      7 C         143.2518  143.1520  164.0603 C.3     1  UNL1        0.1809
      8 C         142.9651  142.0482  165.0346 C.2     1  UNL1        0.2432
      9 O         143.6462  140.7201  164.8852 O.2     1  UNL1       -0.2732
     10 N         141.9972  142.2724  166.1585 N.am    1  UNL1       -0.2990
     11 H         141.5501  143.1440  166.2566 H       1  UNL1        0.1498
     12 C         141.7105  141.1686  167.1328 C.3     1  UNL1        0.1179
     13 C         140.4667  140.3429  166.9862 C.ar    1  UNL1        0.0161
     14 C         140.1216  139.7358  165.6587 C.ar    1  UNL1        0.0103
     15 C         138.8779  138.9103  165.5121 C.ar    1  UNL1        0.0575
     16 CL        138.5328  138.3031  164.1846 Cl      1  UNL1       -0.0823
     17 C         137.9792  138.6918  166.6931 C.ar    1  UNL1        0.0129
     18 C         138.3242  139.2990  168.0206 C.ar    1  UNL1        0.0199
     19 C         139.5680  140.1245  168.1671 C.ar    1  UNL1        0.0839
     20 N         139.9131  140.7317  169.4947 N.ar    1  UNL1       -0.1889
     21 C         139.7116  142.1652  169.8877 C.ar    1  UNL1        0.2258
     22 N         140.1942  142.3313  171.2982 N.ar    1  UNL1       -0.1045
     23 N         140.6940  141.0005  171.7769 N.ar    1  UNL1       -0.0222
     24 N         140.5202  140.0119  170.6623 N.ar    1  UNL1       -0.0385
     25 C         141.8039  142.2514  160.4252 C.3     1  UNL1        0.2684
     26 C         142.7981  141.8203  159.3881 C.ar    1  UNL1        0.0265
     27 C         142.6975  140.4552  158.7745 C.ar    1  UNL1        0.0020
     28 C         143.6916  140.0240  157.7374 C.ar    1  UNL1        0.0294
     29 C         144.7863  140.9579  157.3138 C.ar    1  UNL1        0.1401
     30 F         145.7805  140.5267  156.2766 F       1  UNL1       -0.2042
     31 C         144.8869  142.3229  157.9273 C.ar    1  UNL1        0.0294
     32 C         143.8928  142.7542  158.9645 C.ar    1  UNL1        0.0020
     33 O         140.4910  142.8431  160.0056 O.3     1  UNL1       -0.4350
     34 O         139.7793  145.2763  160.5735 O.2     1  UNL1       -0.2449
     35 C         139.7840  143.8134  160.9048 C.2     1  UNL1        0.3419
     36 C         139.0816  143.3208  162.1352 C.ar    1  UNL1        0.0757
     37 C         138.0636  142.2242  162.0293 C.ar    1  UNL1        0.0064
     38 C         137.3612  141.7316  163.2597 C.ar    1  UNL1        0.0002
     39 C         137.6768  142.3354  164.5961 C.ar    1  UNL1        0.0000
     40 C         138.6949  143.4320  164.7019 C.ar    1  UNL1        0.0002
     41 C         139.3972  143.9246  163.4715 C.ar    1  UNL1        0.0064
@<TRIPOS>BOND
     1    34    35    2
     2    35    33    1
     3    25    33    1
     4    25     1    1
     5     1     2    2
     6     1     3   am
     7     3     4    1
     8     4     5    2
     9     5     6    1
    10     6     7    1
    11     7     8    1
    12     8     9    2
    13     8    10   am
    14    10    12    1
    15    12    13    1
    16    13    14   ar
    17    14    15   ar
    18    15    16    1
    19    15    17   ar
    20    17    18   ar
    21    18    19   ar
    22    19    20    1
    23    20    21   ar
    24    21    22   ar
    25    22    23   ar
    26    23    24   ar
    27    25    26    1
    28    26    27   ar
    29    27    28   ar
    30    28    29   ar
    31    29    30    1
    32    29    31   ar
    33    31    32   ar
    34    35    36    1
    35    36    37   ar
    36    37    38   ar
    37    38    39   ar
    38    39    40   ar
    39    40    41   ar
    40     7     3    1
    41    19    13   ar
    42    24    20   ar
    43    32    26   ar
    44    41    36   ar
    45    10    11    1
@<TRIPOS>MOLECULE
*****
 41 45 0 0 0
SMALL
GASTEIGER

@<TRIPOS>ATOM
      1 C         140.8371  142.3821  164.5821 C.2     1  UNL1        0.2894
      2 O         141.9749  141.5939  164.0039 O.2     1  UNL1       -0.2688
      3 N         140.3003  143.5740  163.8465 N.am    1  UNL1       -0.1703
      4 N         139.1726  144.4541  164.2979 N.2     1  UNL1       -0.1783
      5 C         138.9721  145.5191  163.2607 C.2     1  UNL1        0.0938
      6 C         139.9759  145.2971  162.1684 C.3     1  UNL1        0.0799
      7 C         140.7967  144.0950  162.5304 C.3     1  UNL1        0.1809
      8 C         141.9172  143.5155  161.7188 C.2     1  UNL1        0.2432
      9 O         143.2446  144.2122  161.6680 O.2     1  UNL1       -0.2732
     10 N         141.7103  142.2394  160.9581 N.am    1  UNL1       -0.2990
     11 H         140.8391  141.7821  160.9915 H       1  UNL1        0.1498
     12 C         142.8308  141.6599  160.1466 C.3     1  UNL1        0.1179
     13 C         142.9506  140.1732  159.9871 C.ar    1  UNL1        0.0161
     14 C         142.2526  139.4818  158.8536 C.ar    1  UNL1        0.0103
     15 C         142.3724  137.9951  158.6943 C.ar    1  UNL1        0.0575
     16 CL        141.6745  137.3037  157.5607 Cl      1  UNL1       -0.0823
     17 C         143.1901  137.1999  159.6684 C.ar    1  UNL1        0.0129
     18 C         143.8880  137.8912  160.8019 C.ar    1  UNL1        0.0199
     19 C         143.7683  139.3779  160.9612 C.ar    1  UNL1        0.0839
     20 N         144.4662  140.0693  162.0948 N.ar    1  UNL1       -0.1889
     21 C         144.5573  139.5739  163.5077 C.ar    1  UNL1        0.2258
     22 N         145.3430  140.5760  164.3005 N.ar    1  UNL1       -0.1045
     23 N         145.7375  141.6908  163.3775 N.ar    1  UNL1       -0.0222
     24 N         145.1956  141.3776  162.0144 N.ar    1  UNL1       -0.0385
     25 C         140.2364  141.9783  165.8959 C.3     1  UNL1        0.2684
     26 C         140.9490  142.2984  167.1764 C.ar    1  UNL1        0.0265
     27 C         142.3731  141.8686  167.3698 C.ar    1  UNL1        0.0020
     28 C         143.0858  142.1886  168.6502 C.ar    1  UNL1        0.0294
     29 C         142.3744  142.9384  169.7373 C.ar    1  UNL1        0.1401
     30 F         143.0870  143.2584  171.0178 F       1  UNL1       -0.2042
     31 C         140.9503  143.3681  169.5440 C.ar    1  UNL1        0.0294
     32 C         140.2376  143.0481  168.2635 C.ar    1  UNL1        0.0020
     33 O         138.9230  141.2545  165.9291 O.3     1  UNL1       -0.4350
     34 O         138.1883  139.0803  167.1468 O.2     1  UNL1       -0.2449
     35 C         138.8938  139.7569  166.0091 C.2     1  UNL1        0.3419
     36 C         139.5700  138.9360  164.9513 C.ar    1  UNL1        0.0757
     37 C         138.8673  138.6556  163.6561 C.ar    1  UNL1        0.0064
     38 C         139.5435  137.8347  162.5984 C.ar    1  UNL1        0.0002
     39 C         140.9224  137.2942  162.8358 C.ar    1  UNL1        0.0000
     40 C         141.6252  137.5746  164.1310 C.ar    1  UNL1        0.0002
     41 C         140.9489  138.3955  165.1888 C.ar    1  UNL1        0.0064
@<TRIPOS>BOND
     1    34    35    2
     2    35    33    1
     3    25    33    1
     4    25     1    1
     5     1     2    2
     6     1     3   am
     7     3     4    1
     8     4     5    2
     9     5     6    1
    10     6     7    1
    11     7     8    1
    12     8     9    2
    13     8    10   am
    14    10    12    1
    15    12    13    1
    16    13    14   ar
    17    14    15   ar
    18    15    16    1
    19    15    17   ar
    20    17    18   ar
    21    18    19   ar
    22    19    20    1
    23    20    21   ar
    24    21    22   ar
    25    22    23   ar
    26    23    24   ar
    27    25    26    1
    28    26    27   ar
    29    27    28   ar
    30    28    29   ar
    31    29    30    1
    32    29    31   ar
    33    31    32   ar
    34    35    36    1
    35    36    37   ar
    36    37    38   ar
    37    38    39   ar
    38    39    40   ar
    39    40    41   ar
    40     7     3    1
    41    19    13   ar
    42    24    20   ar
    43    32    26   ar
    44    41    36   ar
    45    10    11    1
@<TRIPOS>MOLECULE
*****
 41 45 0 0 0
SMALL
GASTEIGER

@<TRIPOS>ATOM
      1 C         141.1425  142.0614  163.4448 C.2     1  UNL1        0.2894
      2 O         140.9265  141.2035  162.2335 O.2     1  UNL1       -0.2688
      3 N         140.0660  143.0018  163.8995 N.am    1  UNL1       -0.1703
      4 N         140.1379  143.9167  165.0860 N.2     1  UNL1       -0.1783
      5 C         138.8449  144.6728  165.1674 C.2     1  UNL1        0.0938
      6 C         137.9739  144.2250  164.0312 C.3     1  UNL1        0.0799
      7 C         138.7286  143.1923  163.2476 C.3     1  UNL1        0.1809
      8 C         138.2329  142.4759  162.0266 C.2     1  UNL1        0.2432
      9 O         138.0276  143.2298  160.7462 O.2     1  UNL1       -0.2732
     10 N         137.9424  141.0054  162.0859 N.am    1  UNL1       -0.2990
     11 H         138.0771  140.5105  162.9263 H       1  UNL1        0.1498
     12 C         137.4467  140.2890  160.8649 C.3     1  UNL1        0.1179
     13 C         138.4091  139.8957  159.7836 C.ar    1  UNL1        0.0161
     14 C         138.3094  140.5247  158.4255 C.ar    1  UNL1        0.0103
     15 C         139.2717  140.1314  157.3443 C.ar    1  UNL1        0.0575
     16 CL        139.1721  140.7604  155.9862 Cl      1  UNL1       -0.0823
     17 C         140.3338  139.1090  157.6212 C.ar    1  UNL1        0.0129
     18 C         140.4336  138.4799  158.9792 C.ar    1  UNL1        0.0199
     19 C         139.4712  138.8733  160.0604 C.ar    1  UNL1        0.0839
     20 N         139.5709  138.2442  161.4185 N.ar    1  UNL1       -0.1889
     21 C         140.8385  137.8479  162.1158 C.ar    1  UNL1        0.2258
     22 N         140.4715  137.2598  163.4459 N.ar    1  UNL1       -0.1045
     23 N         138.9770  137.2926  163.5708 N.ar    1  UNL1       -0.0222
     24 N         138.4204  137.9010  162.3178 N.ar    1  UNL1       -0.0385
     25 C         142.4352  141.9789  164.2014 C.3     1  UNL1        0.2684
     26 C         142.5185  141.1626  165.4570 C.ar    1  UNL1        0.0265
     27 C         142.4549  141.8369  166.7954 C.ar    1  UNL1        0.0020
     28 C         142.5382  141.0207  168.0511 C.ar    1  UNL1        0.0294
     29 C         142.6852  139.5302  167.9684 C.ar    1  UNL1        0.1401
     30 F         142.7685  138.7139  169.2241 F       1  UNL1       -0.2042
     31 C         142.7488  138.8559  166.6300 C.ar    1  UNL1        0.0294
     32 C         142.6655  139.6722  165.3743 C.ar    1  UNL1        0.0020
     33 O         143.6444  142.7128  163.7022 O.3     1  UNL1       -0.4350
     34 O         146.0860  141.8417  163.5298 O.2     1  UNL1       -0.2449
     35 C         144.7104  141.9756  162.9470 C.2     1  UNL1        0.3419
     36 C         144.4007  141.3724  161.6090 C.ar    1  UNL1        0.0757
     37 C         144.3398  142.2436  160.3895 C.ar    1  UNL1        0.0064
     38 C         144.0301  141.6404  159.0515 C.ar    1  UNL1        0.0002
     39 C         143.7813  140.1659  158.9330 C.ar    1  UNL1        0.0000
     40 C         143.8423  139.2946  160.1525 C.ar    1  UNL1        0.0002
     41 C         144.1519  139.8979  161.4905 C.ar    1  UNL1        0.0064
@<TRIPOS>BOND
     1    34    35    2
     2    35    33    1
     3    25    33    1
     4    25     1    1
     5     1     2    2
     6     1     3   am
     7     3     4    1
     8     4     5    2
     9     5     6    1
    10     6     7    1
    11     7     8    1
    12     8     9    2
    13     8    10   am
    14    10    12    1
    15    12    13    1
    16    13    14   ar
    17    14    15   ar
    18    15    16    1
    19    15    17   ar
    20    17    18   ar
    21    18    19   ar
    22    19    20    1
    23    20    21   ar
    24    21    22   ar
    25    22    23   ar
    26    23    24   ar
    27    25    26    1
    28    26    27   ar
    29    27    28   ar
    30    28    29   ar
    31    29    30    1
    32    29    31   ar
    33    31    32   ar
    34    35    36    1
    35    36    37   ar
    36    37    38   ar
    37    38    39   ar
    38    39    40   ar
    39    40    41   ar
    40     7     3    1
    41    19    13   ar
    42    24    20   ar
    43    32    26   ar
    44    41    36   ar
    45    10    11    1
@<TRIPOS>MOLECULE
*****
 41 45 0 0 0
SMALL
GASTEIGER

@<TRIPOS>ATOM
      1 C         139.8207  140.8589  164.8394 C.2     1  UNL1        0.2894
      2 O         140.4378  141.0400  163.4843 O.2     1  UNL1       -0.2688
      3 N         139.2212  139.5376  165.2200 N.am    1  UNL1       -0.1703
      4 N         138.5724  139.2090  166.5318 N.2     1  UNL1       -0.1783
      5 C         138.1154  137.7813  166.4782 C.2     1  UNL1        0.0938
      6 C         138.4817  137.2276  165.1331 C.3     1  UNL1        0.0799
      7 C         139.1652  138.3131  164.3555 C.3     1  UNL1        0.1809
      8 C         139.6988  138.1948  162.9587 C.2     1  UNL1        0.2432
      9 O         140.7734  137.1953  162.6484 O.2     1  UNL1       -0.2732
     10 N         139.1579  139.0761  161.8720 N.am    1  UNL1       -0.2990
     11 H         138.4527  139.7322  162.0755 H       1  UNL1        0.1498
     12 C         139.6916  138.9579  160.4751 C.3     1  UNL1        0.1179
     13 C         140.2686  140.1602  159.7883 C.ar    1  UNL1        0.0161
     14 C         139.3768  141.0748  159.0022 C.ar    1  UNL1        0.0103
     15 C         139.9537  142.2771  158.3155 C.ar    1  UNL1        0.0575
     16 CL        139.0619  143.1918  157.5293 Cl      1  UNL1       -0.0823
     17 C         141.4225  142.5647  158.4149 C.ar    1  UNL1        0.0129
     18 C         142.3144  141.6501  159.2010 C.ar    1  UNL1        0.0199
     19 C         141.7374  140.4478  159.8878 C.ar    1  UNL1        0.0839
     20 N         142.6292  139.5331  160.6740 N.ar    1  UNL1       -0.1889
     21 C         143.2194  138.2433  160.1861 C.ar    1  UNL1        0.2258
     22 N         144.0423  137.6608  161.2967 N.ar    1  UNL1       -0.1045
     23 N         143.9608  138.5906  162.4710 N.ar    1  UNL1       -0.0222
     24 N         143.0874  139.7478  162.0861 N.ar    1  UNL1       -0.0385
     25 C         139.8033  141.9991  165.8140 C.3     1  UNL1        0.2684
     26 C         140.9052  142.1413  166.8217 C.ar    1  UNL1        0.0265
     27 C         140.5759  142.2786  168.2787 C.ar    1  UNL1        0.0020
     28 C         141.6777  142.4208  169.2865 C.ar    1  UNL1        0.0294
     29 C         143.1089  142.4257  168.8373 C.ar    1  UNL1        0.1401
     30 F         144.2108  142.5679  169.8450 F       1  UNL1       -0.2042
     31 C         143.4382  142.2884  167.3803 C.ar    1  UNL1        0.0294
     32 C         142.3363  142.1462  166.3725 C.ar    1  UNL1        0.0020
     33 O         138.6839  142.9970  165.7807 O.3     1  UNL1       -0.4350
     34 O         138.3577  145.5717  165.8994 O.2     1  UNL1       -0.2449
     35 C         138.9140  144.3634  165.2063 C.2     1  UNL1        0.3419
     36 C         139.7004  144.5214  163.9387 C.ar    1  UNL1        0.0757
     37 C         139.0252  144.3472  162.6106 C.ar    1  UNL1        0.0064
     38 C         139.8116  144.5052  161.3431 C.ar    1  UNL1        0.0002
     39 C         141.2731  144.8373  161.4037 C.ar    1  UNL1        0.0000
     40 C         141.9483  145.0115  162.7318 C.ar    1  UNL1        0.0002
     41 C         141.1619  144.8535  163.9993 C.ar    1  UNL1        0.0064
@<TRIPOS>BOND
     1    34    35    2
     2    35    33    1
     3    25    33    1
     4    25     1    1
     5     1     2    2
     6     1     3   am
     7     3     4    1
     8     4     5    2
     9     5     6    1
    10     6     7    1
    11     7     8    1
    12     8     9    2
    13     8    10   am
    14    10    12    1
    15    12    13    1
    16    13    14   ar
    17    14    15   ar
    18    15    16    1
    19    15    17   ar
    20    17    18   ar
    21    18    19   ar
    22    19    20    1
    23    20    21   ar
    24    21    22   ar
    25    22    23   ar
    26    23    24   ar
    27    25    26    1
    28    26    27   ar
    29    27    28   ar
    30    28    29   ar
    31    29    30    1
    32    29    31   ar
    33    31    32   ar
    34    35    36    1
    35    36    37   ar
    36    37    38   ar
    37    38    39   ar
    38    39    40   ar
    39    40    41   ar
    40     7     3    1
    41    19    13   ar
    42    24    20   ar
    43    32    26   ar
    44    41    36   ar
    45    10    11    1
@<TRIPOS>MOLECULE
*****
 41 45 0 0 0
SMALL
GASTEIGER

@<TRIPOS>ATOM
      1 C         140.9120  141.6587  164.9697 C.2     1  UNL1        0.2894
      2 O         140.8016  142.9389  164.1958 O.2     1  UNL1       -0.2688
      3 N         142.1109  140.7752  164.7908 N.am    1  UNL1       -0.1703
      4 N         142.3588  139.4727  165.4921 N.2     1  UNL1       -0.1783
      5 C         143.6736  138.9316  165.0139 C.2     1  UNL1        0.0938
      6 C         144.2383  139.8998  164.0171 C.3     1  UNL1        0.0799
      7 C         143.2725  141.0392  163.8792 C.3     1  UNL1        0.1809
      8 C         143.4391  142.2330  162.9864 C.2     1  UNL1        0.2432
      9 O         144.5220  143.2328  163.2652 O.2     1  UNL1       -0.2732
     10 N         142.5227  142.4271  161.8148 N.am    1  UNL1       -0.2990
     11 H         141.8119  141.7710  161.6318 H       1  UNL1        0.1498
     12 C         142.6892  143.6209  160.9220 C.3     1  UNL1        0.1179
     13 C         142.1768  143.5809  159.5128 C.ar    1  UNL1        0.0161
     14 C         143.1275  143.3525  158.3753 C.ar    1  UNL1        0.0103
     15 C         142.6151  143.3125  156.9661 C.ar    1  UNL1        0.0575
     16 CL        143.5659  143.0841  155.8285 Cl      1  UNL1       -0.0823
     17 C         141.1520  143.5009  156.6945 C.ar    1  UNL1        0.0129
     18 C         140.2013  143.7293  157.8320 C.ar    1  UNL1        0.0199
     19 C         140.7137  143.7693  159.2411 C.ar    1  UNL1        0.0839
     20 N         139.7630  143.9977  160.3787 N.ar    1  UNL1       -0.1889
     21 C         138.8741  142.9650  161.0058 C.ar    1  UNL1        0.2258
     22 N         138.0960  143.6280  162.1035 N.ar    1  UNL1       -0.1045
     23 N         138.5041  145.0705  162.1549 N.ar    1  UNL1       -0.0222
     24 N         139.5343  145.2990  161.0889 N.ar    1  UNL1       -0.0385
     25 C         139.8234  141.2620  165.9224 C.3     1  UNL1        0.2684
     26 C         139.9994  141.4816  167.3957 C.ar    1  UNL1        0.0265
     27 C         139.6355  140.3957  168.3645 C.ar    1  UNL1        0.0020
     28 C         139.8115  140.6152  169.8379 C.ar    1  UNL1        0.0294
     29 C         140.3513  141.9205  170.3425 C.ar    1  UNL1        0.1401
     30 F         140.5274  142.1401  171.8158 F       1  UNL1       -0.2042
     31 C         140.7153  143.0063  169.3737 C.ar    1  UNL1        0.0294
     32 C         140.5393  142.7869  167.9003 C.ar    1  UNL1        0.0020
     33 O         138.5588  140.6458  165.4017 O.3     1  UNL1       -0.4350
     34 O         138.3054  138.0923  165.8081 O.2     1  UNL1       -0.2449
     35 C         138.5696  139.2398  164.8790 C.2     1  UNL1        0.3419
     36 C         138.8444  138.9815  163.4272 C.ar    1  UNL1        0.0757
     37 C         137.8975  139.4924  162.3821 C.ar    1  UNL1        0.0064
     38 C         138.1724  139.2341  160.9303 C.ar    1  UNL1        0.0002
     39 C         139.3942  138.4648  160.5236 C.ar    1  UNL1        0.0000
     40 C         140.3411  137.9539  161.5687 C.ar    1  UNL1        0.0002
     41 C         140.0663  138.2122  163.0205 C.ar    1  UNL1        0.0064
@<TRIPOS>BOND
     1    34    35    2
     2    35    33    1
     3    25    33    1
     4    25     1    1
     5     1     2    2
     6     1     3   am
     7     3     4    1
     8     4     5    2
     9     5     6    1
    10     6     7    1
    11     7     8    1
    12     8     9    2
    13     8    10   am
    14    10    12    1
    15    12    13    1
    16    13    14   ar
    17    14    15   ar
    18    15    16    1
    19    15    17   ar
    20    17    18   ar
    21    18    19   ar
    22    19    20    1
    23    20    21   ar
    24    21    22   ar
    25    22    23   ar
    26    23    24   ar
    27    25    26    1
    28    26    27   ar
    29    27    28   ar
    30    28    29   ar
    31    29    30    1
    32    29    31   ar
    33    31    32   ar
    34    35    36    1
    35    36    37   ar
    36    37    38   ar
    37    38    39   ar
    38    39    40   ar
    39    40    41   ar
    40     7     3    1
    41    19    13   ar
    42    24    20   ar
    43    32    26   ar
    44    41    36   ar
    45    10    11    1
@<TRIPOS>MOLECULE
*****
 41 45 0 0 0
SMALL
GASTEIGER

@<TRIPOS>ATOM
      1 C         142.4520  141.2680  163.7623 C.2     1  UNL1        0.2894
      2 O         141.6578  141.3090  162.4905 O.2     1  UNL1       -0.2688
      3 N         143.2014  142.4847  164.2181 N.am    1  UNL1       -0.1703
      4 N         144.0337  142.5932  165.4612 N.2     1  UNL1       -0.1783
      5 C         144.5969  143.9822  165.5223 C.2     1  UNL1        0.0938
      6 C         144.1125  144.7321  164.3169 C.3     1  UNL1        0.0799
      7 C         143.2500  143.8066  163.5109 C.3     1  UNL1        0.1809
      8 C         142.5578  144.1438  162.2236 C.2     1  UNL1        0.2432
      9 O         143.2965  144.0314  160.9230 O.2     1  UNL1       -0.2732
     10 N         141.1268  144.5934  162.2370 N.am    1  UNL1       -0.2990
     11 H         140.6419  144.6672  163.0906 H       1  UNL1        0.1498
     12 C         140.4345  144.9306  160.9497 C.3     1  UNL1        0.1179
     13 C         139.8885  143.8352  160.0825 C.ar    1  UNL1        0.0161
     14 C         140.3692  143.6874  158.6693 C.ar    1  UNL1        0.0103
     15 C         139.8231  142.5921  157.8022 C.ar    1  UNL1        0.0575
     16 CL        140.3038  142.4442  156.3889 Cl      1  UNL1       -0.0823
     17 C         138.7964  141.6446  158.3481 C.ar    1  UNL1        0.0129
     18 C         138.3157  141.7924  159.7613 C.ar    1  UNL1        0.0199
     19 C         138.8617  142.8878  160.6284 C.ar    1  UNL1        0.0839
     20 N         138.3810  143.0357  162.0417 N.ar    1  UNL1       -0.1889
     21 C         138.3621  141.9571  163.0840 C.ar    1  UNL1        0.2258
     22 N         137.8043  142.5430  164.3471 N.ar    1  UNL1       -0.1045
     23 N         137.4784  143.9837  164.0855 N.ar    1  UNL1       -0.0222
     24 N         137.8349  144.2881  162.6607 N.ar    1  UNL1       -0.0385
     25 C         142.4967  140.0101  164.5783 C.3     1  UNL1        0.2684
     26 C         141.8829  139.9815  165.9466 C.ar    1  UNL1        0.0265
     27 C         140.4350  140.3295  166.1265 C.ar    1  UNL1        0.0020
     28 C         139.8212  140.3009  167.4948 C.ar    1  UNL1        0.0294
     29 C         140.6553  139.9244  168.6833 C.ar    1  UNL1        0.1401
     30 F         140.0416  139.8959  170.0517 F       1  UNL1       -0.2042
     31 C         142.1032  139.5765  168.5034 C.ar    1  UNL1        0.0294
     32 C         142.7171  139.6050  167.1351 C.ar    1  UNL1        0.0020
     33 O         143.1552  138.7808  164.0257 O.3     1  UNL1       -0.4350
     34 O         143.6365  137.6685  161.7278 O.2     1  UNL1       -0.2449
     35 C         142.6589  138.1747  162.7465 C.2     1  UNL1        0.3419
     36 C         141.1850  138.0749  162.4861 C.ar    1  UNL1        0.0757
     37 C         140.2580  137.6367  163.5809 C.ar    1  UNL1        0.0064
     38 C         138.7842  137.5369  163.3205 C.ar    1  UNL1        0.0002
     39 C         138.2373  137.8754  161.9653 C.ar    1  UNL1        0.0000
     40 C         139.1644  138.3137  160.8706 C.ar    1  UNL1        0.0002
     41 C         140.6382  138.4134  161.1310 C.ar    1  UNL1        0.0064
@<TRIPOS>BOND
     1    34    35    2
     2    35    33    1
     3    25    33    1
     4    25     1    1
     5     1     2    2
     6     1     3   am
     7     3     4    1
     8     4     5    2
     9     5     6    1
    10     6     7    1
    11     7     8    1
    12     8     9    2
    13     8    10   am
    14    10    12    1
    15    12    13    1
    16    13    14   ar
    17    14    15   ar
    18    15    16    1
    19    15    17   ar
    20    17    18   ar
    21    18    19   ar
    22    19    20    1
    23    20    21   ar
    24    21    22   ar
    25    22    23   ar
    26    23    24   ar
    27    25    26    1
    28    26    27   ar
    29    27    28   ar
    30    28    29   ar
    31    29    30    1
    32    29    31   ar
    33    31    32   ar
    34    35    36    1
    35    36    37   ar
    36    37    38   ar
    37    38    39   ar
    38    39    40   ar
    39    40    41   ar
    40     7     3    1
    41    19    13   ar
    42    24    20   ar
    43    32    26   ar
    44    41    36   ar
    45    10    11    1
@<TRIPOS>MOLECULE
*****
 41 45 0 0 0
SMALL
GASTEIGER

@<TRIPOS>ATOM
      1 C         140.5845  141.3740  163.2223 C.2     1  UNL1        0.2894
      2 O         140.7268  140.8428  161.8267 O.2     1  UNL1       -0.2688
      3 N         140.0092  142.7405  163.4496 N.am    1  UNL1       -0.1703
      4 N         139.8069  143.4016  164.7808 N.2     1  UNL1       -0.1783
      5 C         139.2079  144.7555  164.5397 C.2     1  UNL1        0.0938
      6 C         139.0400  144.9311  163.0595 C.3     1  UNL1        0.0799
      7 C         139.5353  143.6858  162.3858 C.3     1  UNL1        0.1809
      8 C         139.5534  143.4306  160.9078 C.2     1  UNL1        0.2432
      9 O         138.2723  143.1521  160.1790 O.2     1  UNL1       -0.2732
     10 N         140.8528  143.4538  160.1586 N.am    1  UNL1       -0.2990
     11 H         141.6936  143.6366  160.6369 H       1  UNL1        0.1498
     12 C         140.8709  143.1986  158.6806 C.3     1  UNL1        0.1179
     13 C         141.7054  142.0842  158.1221 C.ar    1  UNL1        0.0161
     14 C         143.1783  142.2803  157.9171 C.ar    1  UNL1        0.0103
     15 C         144.0127  141.1660  157.3586 C.ar    1  UNL1        0.0575
     16 CL        145.4857  141.3621  157.1537 Cl      1  UNL1       -0.0823
     17 C         143.3742  139.8555  157.0051 C.ar    1  UNL1        0.0129
     18 C         141.9013  139.6594  157.2101 C.ar    1  UNL1        0.0199
     19 C         141.0669  140.7737  157.7686 C.ar    1  UNL1        0.0839
     20 N         139.5939  140.5776  157.9735 N.ar    1  UNL1       -0.1889
     21 C         138.5143  140.9117  156.9873 C.ar    1  UNL1        0.2258
     22 N         137.1952  140.5536  157.6050 N.ar    1  UNL1       -0.1045
     23 N         137.4595  139.9981  158.9731 N.ar    1  UNL1       -0.0222
     24 N         138.9420  140.0130  159.2008 N.ar    1  UNL1       -0.0385
     25 C         141.0175  140.5385  164.3904 C.3     1  UNL1        0.2684
     26 C         140.0259  139.6579  165.0913 C.ar    1  UNL1        0.0265
     27 C         139.3358  140.1444  166.3311 C.ar    1  UNL1        0.0020
     28 C         138.3442  139.2638  167.0320 C.ar    1  UNL1        0.0294
     29 C         138.0427  137.8968  166.4931 C.ar    1  UNL1        0.1401
     30 F         137.0511  137.0162  167.1939 F       1  UNL1       -0.2042
     31 C         138.7328  137.4104  165.2533 C.ar    1  UNL1        0.0294
     32 C         139.7244  138.2909  164.5524 C.ar    1  UNL1        0.0020
     33 O         142.4422  140.5838  164.8577 O.3     1  UNL1       -0.4350
     34 O         143.2753  142.9665  165.4727 O.2     1  UNL1       -0.2449
     35 C         142.8610  141.5869  165.8912 C.2     1  UNL1        0.3419
     36 C         142.8656  141.2105  167.3432 C.ar    1  UNL1        0.0757
     37 C         143.1574  142.2484  168.3861 C.ar    1  UNL1        0.0064
     38 C         143.1620  141.8720  169.8381 C.ar    1  UNL1        0.0002
     39 C         142.8748  140.4577  170.2472 C.ar    1  UNL1        0.0000
     40 C         142.5830  139.4198  169.2043 C.ar    1  UNL1        0.0002
     41 C         142.5784  139.7963  167.7523 C.ar    1  UNL1        0.0064
@<TRIPOS>BOND
     1    34    35    2
     2    35    33    1
     3    25    33    1
     4    25     1    1
     5     1     2    2
     6     1     3   am
     7     3     4    1
     8     4     5    2
     9     5     6    1
    10     6     7    1
    11     7     8    1
    12     8     9    2
    13     8    10   am
    14    10    12    1
    15    12    13    1
    16    13    14   ar
    17    14    15   ar
    18    15    16    1
    19    15    17   ar
    20    17    18   ar
    21    18    19   ar
    22    19    20    1
    23    20    21   ar
    24    21    22   ar
    25    22    23   ar
    26    23    24   ar
    27    25    26    1
    28    26    27   ar
    29    27    28   ar
    30    28    29   ar
    31    29    30    1
    32    29    31   ar
    33    31    32   ar
    34    35    36    1
    35    36    37   ar
    36    37    38   ar
    37    38    39   ar
    38    39    40   ar
    39    40    41   ar
    40     7     3    1
    41    19    13   ar
    42    24    20   ar
    43    32    26   ar
    44    41    36   ar
    45    10    11    1
@<TRIPOS>MOLECULE
*****
 41 45 0 0 0
SMALL
GASTEIGER

@<TRIPOS>ATOM
      1 C         142.5276  140.0474  159.8329 C.2     1  UNL1        0.2894
      2 O         141.8947  140.8323  160.9435 O.2     1  UNL1       -0.2688
      3 N         143.5358  140.6994  158.9337 N.am    1  UNL1       -0.1703
      4 N         144.2487  140.0448  157.7877 N.2     1  UNL1       -0.1783
      5 C         145.1617  141.0613  157.1684 C.2     1  UNL1        0.0938
      6 C         145.0129  142.3439  157.9317 C.3     1  UNL1        0.0799
      7 C         144.0081  142.1203  159.0227 C.3     1  UNL1        0.1809
      8 C         143.5551  143.1387  160.0265 C.2     1  UNL1        0.2432
      9 O         142.7039  144.2943  159.5906 O.2     1  UNL1       -0.2732
     10 N         143.9533  143.0015  161.4662 N.am    1  UNL1       -0.2990
     11 H         144.5120  142.2430  161.7523 H       1  UNL1        0.1498
     12 C         143.5004  144.0199  162.4699 C.3     1  UNL1        0.1179
     13 C         142.6622  143.5983  163.6404 C.ar    1  UNL1        0.0161
     14 C         143.3177  143.0529  164.8744 C.ar    1  UNL1        0.0103
     15 C         142.4795  142.6312  166.0448 C.ar    1  UNL1        0.0575
     16 CL        143.1350  142.0858  167.2789 Cl      1  UNL1       -0.0823
     17 C         140.9860  142.7550  165.9810 C.ar    1  UNL1        0.0129
     18 C         140.3306  143.3004  164.7470 C.ar    1  UNL1        0.0199
     19 C         141.1687  143.7220  163.5767 C.ar    1  UNL1        0.0839
     20 N         140.5133  144.2674  162.3425 N.ar    1  UNL1       -0.1889
     21 C         139.8327  143.4615  161.2761 C.ar    1  UNL1        0.2258
     22 N         139.3222  144.4105  160.2327 N.ar    1  UNL1       -0.1045
     23 N         139.6873  145.8031  160.6542 N.ar    1  UNL1       -0.0222
     24 N         140.4234  145.7146  161.9582 N.ar    1  UNL1       -0.0385
     25 C         142.1523  138.6106  159.6215 C.3     1  UNL1        0.2684
     26 C         141.5125  138.1842  158.3336 C.ar    1  UNL1        0.0265
     27 C         140.2018  138.7808  157.9137 C.ar    1  UNL1        0.0020
     28 C         139.5620  138.3545  156.6258 C.ar    1  UNL1        0.0294
     29 C         140.2328  137.3316  155.7577 C.ar    1  UNL1        0.1401
     30 F         139.5930  136.9052  154.4697 F       1  UNL1       -0.2042
     31 C         141.5435  136.7350  156.1775 C.ar    1  UNL1        0.0294
     32 C         142.1833  137.1613  157.4654 C.ar    1  UNL1        0.0020
     33 O         142.4167  137.6002  160.6981 O.3     1  UNL1       -0.4350
     34 O         140.2717  137.3660  162.1450 O.2     1  UNL1       -0.2449
     35 C         141.7247  137.7181  162.0237 C.2     1  UNL1        0.3419
     36 C         142.4856  138.1881  163.2279 C.ar    1  UNL1        0.0757
     37 C         141.9004  138.0175  164.5985 C.ar    1  UNL1        0.0064
     38 C         142.6614  138.4875  165.8026 C.ar    1  UNL1        0.0002
     39 C         144.0075  139.1281  165.6362 C.ar    1  UNL1        0.0000
     40 C         144.5926  139.2987  164.2657 C.ar    1  UNL1        0.0002
     41 C         143.8317  138.8287  163.0615 C.ar    1  UNL1        0.0064
@<TRIPOS>BOND
     1    34    35    2
     2    35    33    1
     3    25    33    1
     4    25     1    1
     5     1     2    2
     6     1     3   am
     7     3     4    1
     8     4     5    2
     9     5     6    1
    10     6     7    1
    11     7     8    1
    12     8     9    2
    13     8    10   am
    14    10    12    1
    15    12    13    1
    16    13    14   ar
    17    14    15   ar
    18    15    16    1
    19    15    17   ar
    20    17    18   ar
    21    18    19   ar
    22    19    20    1
    23    20    21   ar
    24    21    22   ar
    25    22    23   ar
    26    23    24   ar
    27    25    26    1
    28    26    27   ar
    29    27    28   ar
    30    28    29   ar
    31    29    30    1
    32    29    31   ar
    33    31    32   ar
    34    35    36    1
    35    36    37   ar
    36    37    38   ar
    37    38    39   ar
    38    39    40   ar
    39    40    41   ar
    40     7     3    1
    41    19    13   ar
    42    24    20   ar
    43    32    26   ar
    44    41    36   ar
    45    10    11    1
@<TRIPOS>MOLECULE
*****
 41 45 0 0 0
SMALL
GASTEIGER

@<TRIPOS>ATOM
      1 C         140.7568  142.0746  161.6743 C.2     1  UNL1        0.2894
      2 O         140.5201  141.0709  162.7636 O.2     1  UNL1       -0.2688
      3 N         140.3154  143.4966  161.8560 N.am    1  UNL1       -0.1703
      4 N         140.4833  144.6059  160.8603 N.2     1  UNL1       -0.1783
      5 C         139.9002  145.8540  161.4541 C.2     1  UNL1        0.0938
      6 C         139.3720  145.5159  162.8167 C.3     1  UNL1        0.0799
      7 C         139.6286  144.0590  163.0651 C.3     1  UNL1        0.1809
      8 C         139.2626  143.2982  164.3048 C.2     1  UNL1        0.2432
      9 O         137.8431  142.8688  164.5298 O.2     1  UNL1       -0.2732
     10 N         140.3162  142.9665  165.3198 N.am    1  UNL1       -0.2990
     11 H         141.2479  143.2483  165.1722 H       1  UNL1        0.1498
     12 C         139.9503  142.2057  166.5596 C.3     1  UNL1        0.1179
     13 C         140.9040  141.1983  167.1302 C.ar    1  UNL1        0.0161
     14 C         141.5754  140.2059  166.2278 C.ar    1  UNL1        0.0103
     15 C         142.5290  139.1985  166.7985 C.ar    1  UNL1        0.0575
     16 CL        143.2005  138.2061  165.8961 Cl      1  UNL1       -0.0823
     17 C         142.8113  139.1836  168.2717 C.ar    1  UNL1        0.0129
     18 C         142.1400  140.1760  169.1741 C.ar    1  UNL1        0.0199
     19 C         141.1863  141.1833  168.6034 C.ar    1  UNL1        0.0839
     20 N         140.5149  142.1758  169.5058 N.ar    1  UNL1       -0.1889
     21 C         140.7742  143.6527  169.5400 C.ar    1  UNL1        0.2258
     22 N         139.8859  144.2552  170.5878 N.ar    1  UNL1       -0.1045
     23 N         139.0774  143.1505  171.2012 N.ar    1  UNL1       -0.0222
     24 N         139.4662  141.8654  170.5324 N.ar    1  UNL1       -0.0385
     25 C         141.4350  141.6563  160.4034 C.3     1  UNL1        0.2684
     26 C         140.6185  141.1751  159.2409 C.ar    1  UNL1        0.0265
     27 C         140.3540  142.0887  158.0809 C.ar    1  UNL1        0.0020
     28 C         139.5374  141.6076  156.9183 C.ar    1  UNL1        0.0294
     29 C         138.9853  140.2129  156.9156 C.ar    1  UNL1        0.1401
     30 F         138.1688  139.7318  155.7530 F       1  UNL1       -0.2042
     31 C         139.2498  139.2993  158.0755 C.ar    1  UNL1        0.0294
     32 C         140.0664  139.7804  159.2381 C.ar    1  UNL1        0.0020
     33 O         142.9298  141.7191  160.2953 O.3     1  UNL1       -0.4350
     34 O         144.5307  140.1117  161.5614 O.2     1  UNL1       -0.2449
     35 C         143.7819  141.4095  161.4903 C.2     1  UNL1        0.3419
     36 C         143.8852  142.3976  162.6141 C.ar    1  UNL1        0.0757
     37 C         143.8349  143.8689  162.3261 C.ar    1  UNL1        0.0064
     38 C         143.9382  144.8570  163.4499 C.ar    1  UNL1        0.0002
     39 C         144.0919  144.3739  164.8616 C.ar    1  UNL1        0.0000
     40 C         144.1423  142.9027  165.1496 C.ar    1  UNL1        0.0002
     41 C         144.0389  141.9146  164.0258 C.ar    1  UNL1        0.0064
@<TRIPOS>BOND
     1    34    35    2
     2    35    33    1
     3    25    33    1
     4    25     1    1
     5     1     2    2
     6     1     3   am
     7     3     4    1
     8     4     5    2
     9     5     6    1
    10     6     7    1
    11     7     8    1
    12     8     9    2
    13     8    10   am
    14    10    12    1
    15    12    13    1
    16    13    14   ar
    17    14    15   ar
    18    15    16    1
    19    15    17   ar
    20    17    18   ar
    21    18    19   ar
    22    19    20    1
    23    20    21   ar
    24    21    22   ar
    25    22    23   ar
    26    23    24   ar
    27    25    26    1
    28    26    27   ar
    29    27    28   ar
    30    28    29   ar
    31    29    30    1
    32    29    31   ar
    33    31    32   ar
    34    35    36    1
    35    36    37   ar
    36    37    38   ar
    37    38    39   ar
    38    39    40   ar
    39    40    41   ar
    40     7     3    1
    41    19    13   ar
    42    24    20   ar
    43    32    26   ar
    44    41    36   ar
    45    10    11    1
