@<TRIPOS>MOLECULE
*****
 39 45 0 0 0
SMALL
GASTEIGER

@<TRIPOS>ATOM
      1 C         138.4489  141.8665  164.4530 C.3     1  UNL1        0.0955
      2 C         137.9317  141.9097  163.0456 C.3     1  UNL1        0.0287
      3 C         137.9072  143.2083  162.2951 C.3     1  UNL1        0.0193
      4 C         138.3999  144.4636  162.9520 C.3     1  UNL1        0.0700
      5 C         138.9170  144.4203  164.3594 C.3     1  UNL1        0.0193
      6 C         138.9415  143.1218  165.1099 C.3     1  UNL1        0.0287
      7 C         138.4329  143.7756  163.4034 C.3     1  UNL1        0.1562
      8 O         138.4551  142.6015  164.0819 O.3     1  UNL1       -0.3571
      9 N         138.3754  145.7622  162.2016 N.3     1  UNL1       -0.2938
     10 H         138.0199  146.4681  162.8462 H       1  UNL1        0.1235
     11 C         139.6406  146.3117  161.6123 C.3     1  UNL1        0.0966
     12 C         140.5347  145.4256  160.7965 C.ar    1  UNL1        0.0074
     13 C         140.2480  145.2074  159.3405 C.ar    1  UNL1        0.0012
     14 C         141.1420  144.3214  158.5246 C.ar    1  UNL1        0.0398
     15 C         142.3228  143.6536  159.1648 C.ar    1  UNL1        0.1732
     16 C         142.6095  143.8719  160.6208 C.ar    1  UNL1        0.1825
     17 C         141.7155  144.7579  161.4367 C.ar    1  UNL1        0.0919
     18 CL        142.0022  144.9762  162.8928 Cl      1  UNL1       -0.0793
     19 O         143.7903  143.2042  161.2611 O.3     1  UNL1       -0.4675
     20 C         144.6843  142.3182  160.4452 C.3     1  UNL1        0.2527
     21 C         144.3976  142.0998  158.9892 C.3     1  UNL1        0.2526
     22 O         143.2168  142.7676  158.3489 O.3     1  UNL1       -0.4683
     23 C         138.4733  140.5679  165.2035 C.3     1  UNL1        0.0604
     24 O         138.8896  140.8559  170.3051 O.2     1  UNL1       -0.2670
     25 C         140.1024  140.2612  169.6527 C.ar    1  UNL1        0.2611
     26 C         141.2673  139.8254  170.4911 C.ar    1  UNL1        0.0623
     27 C         142.4801  139.2307  169.8387 C.ar    1  UNL1        0.0254
     28 C         142.5279  139.0719  168.3480 C.ar    1  UNL1        0.0972
     29 N         143.5936  138.5182  167.4380 N.ar    1  UNL1       -0.2400
     30 C         143.4977  138.4225  165.9441 C.ar    1  UNL1        0.1282
     31 C         142.2631  138.9014  165.2396 C.ar    1  UNL1        0.1588
     32 F         142.1672  138.8056  163.7458 F       1  UNL1       -0.2027
     33 C         141.1244  139.4761  166.0290 C.ar    1  UNL1        0.0500
     34 C         141.3630  139.5077  167.5096 C.ar    1  UNL1        0.0806
     35 N         140.1502  140.1024  168.1619 N.ar    1  UNL1       -0.2915
     36 C         139.1621  140.4382  167.0845 C.3     1  UNL1        0.1402
     37 C         139.7641  140.0512  165.7663 C.3     1  UNL1        0.1335
     38 O         140.0964  139.7721  164.3304 O.3     1  UNL1       -0.3806
     39 H         139.3554  140.0467  163.7679 H       1  UNL1        0.2108
@<TRIPOS>BOND
     1    24    25    2
     2    25    26   ar
     3    26    27   ar
     4    27    28   ar
     5    28    29   ar
     6    29    30   ar
     7    30    31   ar
     8    31    32    1
     9    31    33   ar
    10    33    34   ar
    11    34    35   ar
    12    35    36    1
    13    36    37    1
    14    37    38    1
    15    37    23    1
    16    23     1    1
    17     1     2    1
    18     2     3    1
    19     3     4    1
    20     4     9    1
    21     9    11    1
    22    11    12    1
    23    12    13   ar
    24    13    14   ar
    25    14    15   ar
    26    15    16   ar
    27    16    17   ar
    28    17    18    1
    29    16    19    1
    30    19    20    1
    31    20    21    1
    32    21    22    1
    33     4     5    1
    34     5     6    1
    35     4     7    1
    36     7     8    1
    37    35    25   ar
    38     6     1    1
    39    34    28   ar
    40     8     1    1
    41    37    33    1
    42    17    12   ar
    43    22    15    1
    44    38    39    1
    45     9    10    1
@<TRIPOS>MOLECULE
*****
 39 45 0 0 0
SMALL
GASTEIGER

@<TRIPOS>ATOM
      1 C         140.0071  142.5597  165.4887 C.3     1  UNL1        0.0955
      2 C         139.4319  141.3263  166.1196 C.3     1  UNL1        0.0287
      3 C         140.3341  140.3460  166.8088 C.3     1  UNL1        0.0193
      4 C         141.8114  140.5990  166.8672 C.3     1  UNL1        0.0700
      5 C         142.3866  141.8323  166.2363 C.3     1  UNL1        0.0193
      6 C         141.4844  142.8128  165.5471 C.3     1  UNL1        0.0287
      7 C         141.3570  141.1650  166.4784 C.3     1  UNL1        0.1562
      8 O         140.5412  142.0515  165.8552 O.3     1  UNL1       -0.3571
      9 N         142.7136  139.6186  167.5564 N.3     1  UNL1       -0.2938
     10 H         142.1702  139.1978  168.3100 H       1  UNL1        0.1235
     11 C         143.3258  138.4897  166.7813 C.3     1  UNL1        0.0966
     12 C         142.9637  138.2864  165.3399 C.ar    1  UNL1        0.0074
     13 C         141.7592  137.4694  164.9773 C.ar    1  UNL1        0.0012
     14 C         141.3970  137.2660  163.5360 C.ar    1  UNL1        0.0398
     15 C         142.2394  137.8797  162.4572 C.ar    1  UNL1        0.1732
     16 C         143.4439  138.6967  162.8198 C.ar    1  UNL1        0.1825
     17 C         143.8061  138.9001  164.2611 C.ar    1  UNL1        0.0919
     18 CL        145.0106  139.7172  164.6237 Cl      1  UNL1       -0.0793
     19 O         144.2863  139.3105  161.7411 O.3     1  UNL1       -0.4675
     20 C         143.9242  139.1071  160.2997 C.3     1  UNL1        0.2527
     21 C         142.7197  138.2901  159.9371 C.3     1  UNL1        0.2526
     22 O         141.8772  137.6763  161.0158 O.3     1  UNL1       -0.4683
     23 C         139.1049  143.5401  164.7995 C.3     1  UNL1        0.0604
     24 O         137.7133  139.6182  161.8054 O.2     1  UNL1       -0.2670
     25 C         138.1923  140.8068  161.0259 C.ar    1  UNL1        0.2611
     26 C         138.2244  140.7574  159.5271 C.ar    1  UNL1        0.0623
     27 C         138.7034  141.9461  158.7476 C.ar    1  UNL1        0.0254
     28 C         139.1504  143.1841  159.4669 C.ar    1  UNL1        0.0972
     29 N         139.6697  144.5024  158.9543 N.ar    1  UNL1       -0.2400
     30 C         140.0834  145.6649  159.8072 C.ar    1  UNL1        0.1282
     31 C         139.9956  145.5676  161.3014 C.ar    1  UNL1        0.1588
     32 F         140.4093  146.7301  162.1543 F       1  UNL1       -0.2027
     33 C         139.4942  144.3077  161.9428 C.ar    1  UNL1        0.0500
     34 C         139.1183  143.2335  160.9657 C.ar    1  UNL1        0.0806
     35 N         138.6393  142.0448  161.7452 N.ar    1  UNL1       -0.2915
     36 C         138.7191  142.3845  163.2041 C.3     1  UNL1        0.1402
     37 C         139.2474  143.7830  163.3262 C.3     1  UNL1        0.1335
     38 O         139.7460  145.1308  163.7563 O.3     1  UNL1       -0.3806
     39 H         139.7341  145.1860  164.7247 H       1  UNL1        0.2108
@<TRIPOS>BOND
     1    24    25    2
     2    25    26   ar
     3    26    27   ar
     4    27    28   ar
     5    28    29   ar
     6    29    30   ar
     7    30    31   ar
     8    31    32    1
     9    31    33   ar
    10    33    34   ar
    11    34    35   ar
    12    35    36    1
    13    36    37    1
    14    37    38    1
    15    37    23    1
    16    23     1    1
    17     1     2    1
    18     2     3    1
    19     3     4    1
    20     4     9    1
    21     9    11    1
    22    11    12    1
    23    12    13   ar
    24    13    14   ar
    25    14    15   ar
    26    15    16   ar
    27    16    17   ar
    28    17    18    1
    29    16    19    1
    30    19    20    1
    31    20    21    1
    32    21    22    1
    33     4     5    1
    34     5     6    1
    35     4     7    1
    36     7     8    1
    37    35    25   ar
    38     6     1    1
    39    34    28   ar
    40     8     1    1
    41    37    33    1
    42    17    12   ar
    43    22    15    1
    44    38    39    1
    45     9    10    1
@<TRIPOS>MOLECULE
*****
 39 45 0 0 0
SMALL
GASTEIGER

@<TRIPOS>ATOM
      1 C         138.2386  141.6379  164.7135 C.3     1  UNL1        0.0955
      2 C         138.2264  140.1726  165.0345 C.3     1  UNL1        0.0287
      3 C         139.0802  139.6415  166.1476 C.3     1  UNL1        0.0193
      4 C         139.9461  140.5757  166.9398 C.3     1  UNL1        0.0700
      5 C         139.9583  142.0409  166.6188 C.3     1  UNL1        0.0193
      6 C         139.1045  142.5720  165.5057 C.3     1  UNL1        0.0287
      7 C         139.4954  140.9133  166.3390 C.3     1  UNL1        0.1562
      8 O         138.7234  141.3935  165.3325 O.3     1  UNL1       -0.3571
      9 N         140.7999  140.0446  168.0530 N.3     1  UNL1       -0.2938
     10 H         140.3420  139.2012  168.3986 H       1  UNL1        0.1235
     11 C         142.2324  139.6840  167.7927 C.3     1  UNL1        0.0966
     12 C         142.8034  139.8283  166.4131 C.ar    1  UNL1        0.0074
     13 C         142.8550  138.6431  165.4951 C.ar    1  UNL1        0.0012
     14 C         143.4260  138.7872  164.1156 C.ar    1  UNL1        0.0398
     15 C         143.9454  140.1166  163.6540 C.ar    1  UNL1        0.1732
     16 C         143.8938  141.3017  164.5720 C.ar    1  UNL1        0.1825
     17 C         143.3228  141.1576  165.9516 C.ar    1  UNL1        0.0919
     18 CL        143.2713  142.3427  166.8695 Cl      1  UNL1       -0.0793
     19 O         144.4132  142.6311  164.1105 O.3     1  UNL1       -0.4675
     20 C         144.9842  142.7752  162.7309 C.3     1  UNL1        0.2527
     21 C         145.0358  141.5902  161.8129 C.3     1  UNL1        0.2526
     22 O         144.5164  140.2607  162.2744 O.3     1  UNL1       -0.4683
     23 C         137.3848  142.1689  163.6004 C.3     1  UNL1        0.0604
     24 O         140.2815  146.1287  162.1133 O.2     1  UNL1       -0.2670
     25 C         140.0828  145.1109  161.0295 C.ar    1  UNL1        0.2611
     26 C         140.7075  145.3187  159.6817 C.ar    1  UNL1        0.0623
     27 C         140.5087  144.3009  158.5980 C.ar    1  UNL1        0.0254
     28 C         139.6852  143.0753  158.8620 C.ar    1  UNL1        0.0972
     29 N         139.3230  141.9084  157.9801 N.ar    1  UNL1       -0.2400
     30 C         138.4783  140.7384  158.3894 C.ar    1  UNL1        0.1282
     31 C         137.9187  140.6672  159.7793 C.ar    1  UNL1        0.1588
     32 F         137.0740  139.4972  160.1886 F       1  UNL1       -0.2027
     33 C         138.2038  141.7659  160.7599 C.ar    1  UNL1        0.0500
     34 C         139.0605  142.8675  160.2097 C.ar    1  UNL1        0.0806
     35 N         139.2593  143.8853  161.2935 N.ar    1  UNL1       -0.2915
     36 C         138.5255  143.4128  162.5134 C.3     1  UNL1        0.1402
     37 C         137.8732  142.1029  162.1836 C.3     1  UNL1        0.1335
     38 O         137.1188  140.8068  162.1500 O.3     1  UNL1       -0.3806
     39 H         136.7051  140.6510  163.0134 H       1  UNL1        0.2108
@<TRIPOS>BOND
     1    24    25    2
     2    25    26   ar
     3    26    27   ar
     4    27    28   ar
     5    28    29   ar
     6    29    30   ar
     7    30    31   ar
     8    31    32    1
     9    31    33   ar
    10    33    34   ar
    11    34    35   ar
    12    35    36    1
    13    36    37    1
    14    37    38    1
    15    37    23    1
    16    23     1    1
    17     1     2    1
    18     2     3    1
    19     3     4    1
    20     4     9    1
    21     9    11    1
    22    11    12    1
    23    12    13   ar
    24    13    14   ar
    25    14    15   ar
    26    15    16   ar
    27    16    17   ar
    28    17    18    1
    29    16    19    1
    30    19    20    1
    31    20    21    1
    32    21    22    1
    33     4     5    1
    34     5     6    1
    35     4     7    1
    36     7     8    1
    37    35    25   ar
    38     6     1    1
    39    34    28   ar
    40     8     1    1
    41    37    33    1
    42    17    12   ar
    43    22    15    1
    44    38    39    1
    45     9    10    1
@<TRIPOS>MOLECULE
*****
 39 45 0 0 0
SMALL
GASTEIGER

@<TRIPOS>ATOM
      1 C         137.8629  140.7546  161.8342 C.3     1  UNL1        0.0955
      2 C         137.6448  140.5897  163.3091 C.3     1  UNL1        0.0287
      3 C         137.6016  141.7955  164.2003 C.3     1  UNL1        0.0193
      4 C         137.7764  143.1661  163.6167 C.3     1  UNL1        0.0700
      5 C         137.9944  143.3310  162.1418 C.3     1  UNL1        0.0193
      6 C         138.0377  142.1253  161.2505 C.3     1  UNL1        0.0287
      7 C         137.8077  142.5353  163.0883 C.3     1  UNL1        0.1562
      8 O         137.8468  141.4450  162.2825 O.3     1  UNL1       -0.3571
      9 N         137.7331  144.3719  164.5079 N.3     1  UNL1       -0.2938
     10 H         137.0676  144.1641  165.2524 H       1  UNL1        0.1235
     11 C         138.9869  144.8593  165.1715 C.3     1  UNL1        0.0966
     12 C         140.3269  144.4671  164.6231 C.ar    1  UNL1        0.0074
     13 C         140.9513  145.2717  163.5218 C.ar    1  UNL1        0.0012
     14 C         142.2912  144.8795  162.9734 C.ar    1  UNL1        0.0398
     15 C         143.0068  143.6828  163.5262 C.ar    1  UNL1        0.1732
     16 C         142.3825  142.8782  164.6275 C.ar    1  UNL1        0.1825
     17 C         141.0425  143.2703  165.1759 C.ar    1  UNL1        0.0919
     18 CL        140.4182  142.4657  166.2772 Cl      1  UNL1       -0.0793
     19 O         143.0980  141.6814  165.1804 O.3     1  UNL1       -0.4675
     20 C         144.4380  141.2892  164.6320 C.3     1  UNL1        0.2527
     21 C         145.0623  142.0938  163.5308 C.3     1  UNL1        0.2526
     22 O         144.3468  143.2906  162.9778 O.3     1  UNL1       -0.4683
     23 C         137.9061  139.5488  160.9430 C.3     1  UNL1        0.0604
     24 O         141.8492  138.6668  164.0984 O.2     1  UNL1       -0.2670
     25 C         142.2059  138.4850  162.6528 C.ar    1  UNL1        0.2611
     26 C         143.5996  138.0848  162.2688 C.ar    1  UNL1        0.0623
     27 C         143.9563  137.9030  160.8232 C.ar    1  UNL1        0.0254
     28 C         142.9193  138.1213  159.7616 C.ar    1  UNL1        0.0972
     29 N         142.9912  138.0134  158.2604 N.ar    1  UNL1       -0.2400
     30 C         141.8542  138.2656  157.3151 C.ar    1  UNL1        0.1282
     31 C         140.5092  138.6613  157.8483 C.ar    1  UNL1        0.1588
     32 F         139.3723  138.9135  156.9030 F       1  UNL1       -0.2027
     33 C         140.3012  138.8048  159.3269 C.ar    1  UNL1        0.0500
     34 C         141.5257  138.5214  160.1456 C.ar    1  UNL1        0.0806
     35 N         141.1690  138.7033  161.5912 N.ar    1  UNL1       -0.2915
     36 C         139.7240  139.0990  161.6658 C.3     1  UNL1        0.1402
     37 C         139.1877  139.1618  160.2664 C.3     1  UNL1        0.1335
     38 O         138.3835  139.3055  159.0084 O.3     1  UNL1       -0.3806
     39 H         137.4760  139.5645  159.2326 H       1  UNL1        0.2108
@<TRIPOS>BOND
     1    24    25    2
     2    25    26   ar
     3    26    27   ar
     4    27    28   ar
     5    28    29   ar
     6    29    30   ar
     7    30    31   ar
     8    31    32    1
     9    31    33   ar
    10    33    34   ar
    11    34    35   ar
    12    35    36    1
    13    36    37    1
    14    37    38    1
    15    37    23    1
    16    23     1    1
    17     1     2    1
    18     2     3    1
    19     3     4    1
    20     4     9    1
    21     9    11    1
    22    11    12    1
    23    12    13   ar
    24    13    14   ar
    25    14    15   ar
    26    15    16   ar
    27    16    17   ar
    28    17    18    1
    29    16    19    1
    30    19    20    1
    31    20    21    1
    32    21    22    1
    33     4     5    1
    34     5     6    1
    35     4     7    1
    36     7     8    1
    37    35    25   ar
    38     6     1    1
    39    34    28   ar
    40     8     1    1
    41    37    33    1
    42    17    12   ar
    43    22    15    1
    44    38    39    1
    45     9    10    1
@<TRIPOS>MOLECULE
*****
 39 45 0 0 0
SMALL
GASTEIGER

@<TRIPOS>ATOM
      1 C         137.9229  140.5980  162.1171 C.3     1  UNL1        0.0955
      2 C         137.9749  141.9583  161.4869 C.3     1  UNL1        0.0287
      3 C         137.9270  143.1859  162.3476 C.3     1  UNL1        0.0193
      4 C         137.8270  143.0533  163.8383 C.3     1  UNL1        0.0700
      5 C         137.7750  141.6930  164.4684 C.3     1  UNL1        0.0193
      6 C         137.8229  140.4653  163.6078 C.3     1  UNL1        0.0287
      7 C         137.8503  142.3516  163.4080 C.3     1  UNL1        0.1562
      8 O         137.8937  141.2416  162.6298 O.3     1  UNL1       -0.3571
      9 N         137.7791  144.2808  164.6990 N.3     1  UNL1       -0.2938
     10 H         137.2030  144.0505  165.5086 H       1  UNL1        0.1235
     11 C         139.0503  144.8763  165.2274 C.3     1  UNL1        0.0966
     12 C         140.3665  144.5003  164.6139 C.ar    1  UNL1        0.0074
     13 C         140.8864  145.2605  163.4299 C.ar    1  UNL1        0.0012
     14 C         142.2025  144.8846  162.8163 C.ar    1  UNL1        0.0398
     15 C         142.9987  143.7485  163.3866 C.ar    1  UNL1        0.1732
     16 C         142.4788  142.9883  164.5706 C.ar    1  UNL1        0.1825
     17 C         141.1627  143.3642  165.1842 C.ar    1  UNL1        0.0919
     18 CL        140.6428  142.6040  166.3682 Cl      1  UNL1       -0.0793
     19 O         143.2749  141.8522  165.1410 O.3     1  UNL1       -0.4675
     20 C         144.5910  141.4762  164.5273 C.3     1  UNL1        0.2527
     21 C         145.1110  142.2364  163.3434 C.3     1  UNL1        0.2526
     22 O         144.3148  143.3725  162.7730 O.3     1  UNL1       -0.4683
     23 C         137.9708  139.3704  161.2564 C.3     1  UNL1        0.0604
     24 O         138.0210  139.8120  156.1491 O.2     1  UNL1       -0.2670
     25 C         139.3158  139.2960  156.7035 C.ar    1  UNL1        0.2611
     26 C         140.4510  138.9705  155.7786 C.ar    1  UNL1        0.0623
     27 C         141.7457  138.4545  156.3330 C.ar    1  UNL1        0.0254
     28 C         141.9052  138.2639  157.8123 C.ar    1  UNL1        0.0972
     29 N         143.0679  137.7713  158.6344 N.ar    1  UNL1       -0.2400
     30 C         143.0799  137.6325  160.1279 C.ar    1  UNL1        0.1282
     31 C         141.8631  137.9989  160.9250 C.ar    1  UNL1        0.1588
     32 F         141.8751  137.8601  162.4185 F       1  UNL1       -0.2027
     33 C         140.6344  138.5040  160.2285 C.ar    1  UNL1        0.0500
     34 C         140.7700  138.5894  158.7371 C.ar    1  UNL1        0.0806
     35 N         139.4753  139.1054  158.1827 N.ar    1  UNL1       -0.2915
     36 C         138.5395  139.3389  159.3315 C.3     1  UNL1        0.1402
     37 C         139.2558  138.9672  160.5959 C.3     1  UNL1        0.1335
     38 O         139.7035  138.6798  161.9983 O.3     1  UNL1       -0.3806
     39 H         138.9836  138.8834  162.6157 H       1  UNL1        0.2108
@<TRIPOS>BOND
     1    24    25    2
     2    25    26   ar
     3    26    27   ar
     4    27    28   ar
     5    28    29   ar
     6    29    30   ar
     7    30    31   ar
     8    31    32    1
     9    31    33   ar
    10    33    34   ar
    11    34    35   ar
    12    35    36    1
    13    36    37    1
    14    37    38    1
    15    37    23    1
    16    23     1    1
    17     1     2    1
    18     2     3    1
    19     3     4    1
    20     4     9    1
    21     9    11    1
    22    11    12    1
    23    12    13   ar
    24    13    14   ar
    25    14    15   ar
    26    15    16   ar
    27    16    17   ar
    28    17    18    1
    29    16    19    1
    30    19    20    1
    31    20    21    1
    32    21    22    1
    33     4     5    1
    34     5     6    1
    35     4     7    1
    36     7     8    1
    37    35    25   ar
    38     6     1    1
    39    34    28   ar
    40     8     1    1
    41    37    33    1
    42    17    12   ar
    43    22    15    1
    44    38    39    1
    45     9    10    1
@<TRIPOS>MOLECULE
*****
 39 45 0 0 0
SMALL
GASTEIGER

@<TRIPOS>ATOM
      1 C         138.7302  138.9914  164.1818 C.3     1  UNL1        0.0955
      2 C         138.0932  140.3083  163.8495 C.3     1  UNL1        0.0287
      3 C         137.5744  140.5623  162.4652 C.3     1  UNL1        0.0193
      4 C         137.6926  139.4997  161.4131 C.3     1  UNL1        0.0700
      5 C         138.3295  138.1829  161.7454 C.3     1  UNL1        0.0193
      6 C         138.8483  137.9287  163.1297 C.3     1  UNL1        0.0287
      7 C         137.9915  139.3142  162.1577 C.3     1  UNL1        0.1562
      8 O         138.4606  139.0845  163.4094 O.3     1  UNL1       -0.3571
      9 N         137.1738  139.7538  160.0288 N.3     1  UNL1       -0.2938
     10 H         136.3528  140.3511  160.1271 H       1  UNL1        0.1235
     11 C         138.0582  140.3985  159.0032 C.3     1  UNL1        0.0966
     12 C         139.2208  141.2407  159.4382 C.ar    1  UNL1        0.0074
     13 C         139.0335  142.7088  159.6825 C.ar    1  UNL1        0.0012
     14 C         140.1960  143.5510  160.1176 C.ar    1  UNL1        0.0398
     15 C         141.5458  142.9252  160.3082 C.ar    1  UNL1        0.1732
     16 C         141.7331  141.4571  160.0639 C.ar    1  UNL1        0.1825
     17 C         140.5706  140.6149  159.6289 C.ar    1  UNL1        0.0919
     18 CL        140.7579  139.1468  159.3845 Cl      1  UNL1       -0.0793
     19 O         143.0828  140.8312  160.2545 O.3     1  UNL1       -0.4675
     20 C         144.2453  141.6735  160.6896 C.3     1  UNL1        0.2527
     21 C         144.0581  143.1415  160.9339 C.3     1  UNL1        0.2526
     22 O         142.7083  143.7674  160.7433 O.3     1  UNL1       -0.4683
     23 C         139.2490  138.7373  165.5661 C.3     1  UNL1        0.0604
     24 O         138.0772  140.0839  170.3719 O.2     1  UNL1       -0.2670
     25 C         139.3217  140.7507  169.8654 C.ar    1  UNL1        0.2611
     26 C         140.0773  141.6987  170.7488 C.ar    1  UNL1        0.0623
     27 C         141.3218  142.3656  170.2423 C.ar    1  UNL1        0.0254
     28 C         141.8107  142.0844  168.8524 C.ar    1  UNL1        0.0972
     29 N         143.0054  142.5997  168.0925 N.ar    1  UNL1       -0.2400
     30 C         143.3710  142.2226  166.6874 C.ar    1  UNL1        0.1282
     31 C         142.5150  141.2565  165.9233 C.ar    1  UNL1        0.1588
     32 F         142.8805  140.8795  164.5183 F       1  UNL1       -0.2027
     33 C         141.2934  140.6675  166.5643 C.ar    1  UNL1        0.0500
     34 C         141.0552  141.1364  167.9691 C.ar    1  UNL1        0.0806
     35 N         139.8107  140.4696  168.4756 N.ar    1  UNL1       -0.2915
     36 C         139.2798  139.5886  167.3838 C.3     1  UNL1        0.1402
     37 C         140.1961  139.7109  166.2025 C.3     1  UNL1        0.1335
     38 O         140.9144  139.6297  164.8882 O.3     1  UNL1       -0.3806
     39 H         140.4426  139.0206  164.2990 H       1  UNL1        0.2108
@<TRIPOS>BOND
     1    24    25    2
     2    25    26   ar
     3    26    27   ar
     4    27    28   ar
     5    28    29   ar
     6    29    30   ar
     7    30    31   ar
     8    31    32    1
     9    31    33   ar
    10    33    34   ar
    11    34    35   ar
    12    35    36    1
    13    36    37    1
    14    37    38    1
    15    37    23    1
    16    23     1    1
    17     1     2    1
    18     2     3    1
    19     3     4    1
    20     4     9    1
    21     9    11    1
    22    11    12    1
    23    12    13   ar
    24    13    14   ar
    25    14    15   ar
    26    15    16   ar
    27    16    17   ar
    28    17    18    1
    29    16    19    1
    30    19    20    1
    31    20    21    1
    32    21    22    1
    33     4     5    1
    34     5     6    1
    35     4     7    1
    36     7     8    1
    37    35    25   ar
    38     6     1    1
    39    34    28   ar
    40     8     1    1
    41    37    33    1
    42    17    12   ar
    43    22    15    1
    44    38    39    1
    45     9    10    1
@<TRIPOS>MOLECULE
*****
 39 45 0 0 0
SMALL
GASTEIGER

@<TRIPOS>ATOM
      1 C         138.1647  140.5697  164.0168 C.3     1  UNL1        0.0955
      2 C         138.0193  139.8491  162.7092 C.3     1  UNL1        0.0287
      3 C         137.9601  140.6258  161.4273 C.3     1  UNL1        0.0193
      4 C         138.0462  142.1231  161.4530 C.3     1  UNL1        0.0700
      5 C         138.1916  142.8437  162.7605 C.3     1  UNL1        0.0193
      6 C         138.2508  142.0670  164.0424 C.3     1  UNL1        0.0287
      7 C         138.0832  141.7406  162.1813 C.3     1  UNL1        0.1562
      8 O         138.1367  141.0383  163.3404 O.3     1  UNL1       -0.3571
      9 N         137.9870  142.8998  160.1711 N.3     1  UNL1       -0.2938
     10 H         137.4390  143.7390  160.3603 H       1  UNL1        0.1235
     11 C         139.2547  143.3508  159.5083 C.3     1  UNL1        0.0966
     12 C         140.5417  143.3603  160.2789 C.ar    1  UNL1        0.0074
     13 C         140.9870  144.6096  160.9796 C.ar    1  UNL1        0.0012
     14 C         142.2739  144.6192  161.7502 C.ar    1  UNL1        0.0398
     15 C         143.1154  143.3795  161.8201 C.ar    1  UNL1        0.1732
     16 C         142.6701  142.1302  161.1194 C.ar    1  UNL1        0.1825
     17 C         141.3832  142.1206  160.3488 C.ar    1  UNL1        0.0919
     18 CL        140.9379  140.8713  159.6481 Cl      1  UNL1       -0.0793
     19 O         143.5116  140.8905  161.1893 O.3     1  UNL1       -0.4675
     20 C         144.7985  140.9001  161.9599 C.3     1  UNL1        0.2527
     21 C         145.2438  142.1493  162.6606 C.3     1  UNL1        0.2526
     22 O         144.4023  143.3891  162.5907 O.3     1  UNL1       -0.4683
     23 C         138.2239  139.7930  165.2987 C.3     1  UNL1        0.0604
     24 O         138.4735  140.9260  170.2923 O.2     1  UNL1       -0.2670
     25 C         139.7598  140.3733  169.7538 C.ar    1  UNL1        0.2611
     26 C         140.9425  140.2064  170.6611 C.ar    1  UNL1        0.0623
     27 C         142.2288  139.6537  170.1225 C.ar    1  UNL1        0.0254
     28 C         142.3324  139.2680  168.6767 C.ar    1  UNL1        0.0972
     29 N         143.4748  138.6987  167.8759 N.ar    1  UNL1       -0.2400
     30 C         143.4287  138.3586  166.4157 C.ar    1  UNL1        0.1282
     31 C         142.1686  138.5813  165.6332 C.ar    1  UNL1        0.1588
     32 F         142.1225  138.2412  164.1730 F       1  UNL1       -0.2027
     33 C         140.9545  139.1442  166.3108 C.ar    1  UNL1        0.0500
     34 C         141.1496  139.4350  167.7694 C.ar    1  UNL1        0.0806
     35 N         139.8633  139.9877  168.3079 N.ar    1  UNL1       -0.2915
     36 C         138.8733  140.0384  167.1822 C.3     1  UNL1        0.1402
     37 C         139.5476  139.5170  165.9480 C.3     1  UNL1        0.1335
     38 O         139.9453  139.0534  164.5780 O.3     1  UNL1       -0.3806
     39 H         139.1940  139.1524  163.9724 H       1  UNL1        0.2108
@<TRIPOS>BOND
     1    24    25    2
     2    25    26   ar
     3    26    27   ar
     4    27    28   ar
     5    28    29   ar
     6    29    30   ar
     7    30    31   ar
     8    31    32    1
     9    31    33   ar
    10    33    34   ar
    11    34    35   ar
    12    35    36    1
    13    36    37    1
    14    37    38    1
    15    37    23    1
    16    23     1    1
    17     1     2    1
    18     2     3    1
    19     3     4    1
    20     4     9    1
    21     9    11    1
    22    11    12    1
    23    12    13   ar
    24    13    14   ar
    25    14    15   ar
    26    15    16   ar
    27    16    17   ar
    28    17    18    1
    29    16    19    1
    30    19    20    1
    31    20    21    1
    32    21    22    1
    33     4     5    1
    34     5     6    1
    35     4     7    1
    36     7     8    1
    37    35    25   ar
    38     6     1    1
    39    34    28   ar
    40     8     1    1
    41    37    33    1
    42    17    12   ar
    43    22    15    1
    44    38    39    1
    45     9    10    1
@<TRIPOS>MOLECULE
*****
 39 45 0 0 0
SMALL
GASTEIGER

@<TRIPOS>ATOM
      1 C         139.5862  144.0335  163.2387 C.3     1  UNL1        0.0955
      2 C         140.1872  143.5400  164.5214 C.3     1  UNL1        0.0287
      3 C         139.5775  142.3690  165.2336 C.3     1  UNL1        0.0193
      4 C         138.3669  141.6916  164.6631 C.3     1  UNL1        0.0700
      5 C         137.7660  142.1851  163.3804 C.3     1  UNL1        0.0193
      6 C         138.3756  143.3560  162.6682 C.3     1  UNL1        0.0287
      7 C         138.6658  142.3296  164.2368 C.3     1  UNL1        0.1562
      8 O         139.2170  143.3884  163.5929 O.3     1  UNL1       -0.3571
      9 N         137.7572  140.5206  165.3753 N.3     1  UNL1       -0.2938
     10 H         136.8218  140.3951  164.9884 H       1  UNL1        0.1235
     11 C         138.4293  139.1805  165.3267 C.3     1  UNL1        0.0966
     12 C         139.2429  138.7925  164.1277 C.ar    1  UNL1        0.0074
     13 C         138.5583  138.3698  162.8617 C.ar    1  UNL1        0.0012
     14 C         139.3718  137.9818  161.6627 C.ar    1  UNL1        0.0398
     15 C         140.8698  138.0164  161.7296 C.ar    1  UNL1        0.1732
     16 C         141.5544  138.4391  162.9956 C.ar    1  UNL1        0.1825
     17 C         140.7410  138.8272  164.1946 C.ar    1  UNL1        0.0919
     18 CL        141.4256  139.2498  165.4606 Cl      1  UNL1       -0.0793
     19 O         143.0525  138.4738  163.0626 O.3     1  UNL1       -0.4675
     20 C         143.8660  138.0858  161.8635 C.3     1  UNL1        0.2527
     21 C         143.1815  137.6631  160.5976 C.3     1  UNL1        0.2526
     22 O         141.6833  137.6284  160.5306 O.3     1  UNL1       -0.4683
     23 C         140.1959  145.2044  162.5265 C.3     1  UNL1        0.0604
     24 O         144.1765  142.0018  162.1022 O.2     1  UNL1       -0.2670
     25 C         143.7680  142.6029  160.7900 C.ar    1  UNL1        0.2611
     26 C         144.5092  142.2424  159.5368 C.ar    1  UNL1        0.0623
     27 C         144.1007  142.8435  158.2246 C.ar    1  UNL1        0.0254
     28 C         142.9510  143.8049  158.1657 C.ar    1  UNL1        0.0972
     29 N         142.3314  144.5487  157.0109 N.ar    1  UNL1       -0.2400
     30 C         141.1678  145.4904  157.1071 C.ar    1  UNL1        0.1282
     31 C         140.5247  145.7546  158.4362 C.ar    1  UNL1        0.1588
     32 F         139.3611  146.6963  158.5324 F       1  UNL1       -0.2027
     33 C         141.0451  145.0770  159.6692 C.ar    1  UNL1        0.0500
     34 C         142.2097  144.1654  159.4189 C.ar    1  UNL1        0.0806
     35 N         142.6183  143.5644  160.7311 N.ar    1  UNL1       -0.2915
     36 C         141.7061  144.1045  161.7923 C.3     1  UNL1        0.1402
     37 C         140.7339  145.0394  161.1360 C.3     1  UNL1        0.1335
     38 O         139.6491  146.0088  160.7704 O.3     1  UNL1       -0.3806
     39 H         139.1550  146.2568  161.5674 H       1  UNL1        0.2108
@<TRIPOS>BOND
     1    24    25    2
     2    25    26   ar
     3    26    27   ar
     4    27    28   ar
     5    28    29   ar
     6    29    30   ar
     7    30    31   ar
     8    31    32    1
     9    31    33   ar
    10    33    34   ar
    11    34    35   ar
    12    35    36    1
    13    36    37    1
    14    37    38    1
    15    37    23    1
    16    23     1    1
    17     1     2    1
    18     2     3    1
    19     3     4    1
    20     4     9    1
    21     9    11    1
    22    11    12    1
    23    12    13   ar
    24    13    14   ar
    25    14    15   ar
    26    15    16   ar
    27    16    17   ar
    28    17    18    1
    29    16    19    1
    30    19    20    1
    31    20    21    1
    32    21    22    1
    33     4     5    1
    34     5     6    1
    35     4     7    1
    36     7     8    1
    37    35    25   ar
    38     6     1    1
    39    34    28   ar
    40     8     1    1
    41    37    33    1
    42    17    12   ar
    43    22    15    1
    44    38    39    1
    45     9    10    1
@<TRIPOS>MOLECULE
*****
 39 45 0 0 0
SMALL
GASTEIGER

@<TRIPOS>ATOM
      1 C         143.2367  142.9880  164.2907 C.3     1  UNL1        0.0955
      2 C         143.7995  142.4652  163.0022 C.3     1  UNL1        0.0287
      3 C         143.4323  143.1193  161.7032 C.3     1  UNL1        0.0193
      4 C         142.5023  144.2961  161.6927 C.3     1  UNL1        0.0700
      5 C         141.9396  144.8189  162.9811 C.3     1  UNL1        0.0193
      6 C         142.3067  144.1648  164.2801 C.3     1  UNL1        0.0287
      7 C         142.6745  143.9707  162.4293 C.3     1  UNL1        0.1562
      8 O         143.0065  143.3793  163.6038 O.3     1  UNL1       -0.3571
      9 N         142.1351  144.9502  160.3937 N.3     1  UNL1       -0.2938
     10 H         142.9339  144.8351  159.7699 H       1  UNL1        0.1235
     11 C         140.9249  144.4885  159.6373 C.3     1  UNL1        0.0966
     12 C         140.0811  143.3736  160.1806 C.ar    1  UNL1        0.0074
     13 C         138.9098  143.6822  161.0654 C.ar    1  UNL1        0.0012
     14 C         138.0660  142.5675  161.6087 C.ar    1  UNL1        0.0398
     15 C         138.3935  141.1440  161.2673 C.ar    1  UNL1        0.1732
     16 C         139.5648  140.8354  160.3826 C.ar    1  UNL1        0.1825
     17 C         140.4086  141.9501  159.8392 C.ar    1  UNL1        0.0919
     18 CL        141.5799  141.6415  158.9545 Cl      1  UNL1       -0.0793
     19 O         139.8923  139.4120  160.0412 O.3     1  UNL1       -0.4675
     20 C         139.0485  138.2972  160.5845 C.3     1  UNL1        0.2527
     21 C         137.8772  138.6058  161.4692 C.3     1  UNL1        0.2526
     22 O         137.5496  140.0292  161.8107 O.3     1  UNL1       -0.4683
     23 C         143.6039  142.3339  165.5897 C.3     1  UNL1        0.0604
     24 O         143.8823  143.4794  170.5789 O.2     1  UNL1       -0.2670
     25 C         142.7322  142.5741  170.2508 C.ar    1  UNL1        0.2611
     26 C         141.8127  142.1051  171.3391 C.ar    1  UNL1        0.0623
     27 C         140.6625  141.1999  171.0110 C.ar    1  UNL1        0.0254
     28 C         140.4319  140.7636  169.5945 C.ar    1  UNL1        0.0972
     29 N         139.3787  139.8760  168.9835 N.ar    1  UNL1       -0.2400
     30 C         139.2743  139.5250  167.5289 C.ar    1  UNL1        0.1282
     31 C         140.2722  140.0724  166.5518 C.ar    1  UNL1        0.1588
     32 F         140.1677  139.7214  165.0973 F       1  UNL1       -0.2027
     33 C         141.3744  140.9707  167.0294 C.ar    1  UNL1        0.0500
     34 C         141.3515  141.2325  168.5062 C.ar    1  UNL1        0.0806
     35 N         142.5016  142.1378  168.8343 N.ar    1  UNL1       -0.2915
     36 C         143.2353  142.4354  167.5603 C.3     1  UNL1        0.1402
     37 C         142.5387  141.7141  166.4448 C.3     1  UNL1        0.1335
     38 O         142.0647  141.1224  165.1505 O.3     1  UNL1       -0.3806
     39 H         142.6459  141.4127  164.4302 H       1  UNL1        0.2108
@<TRIPOS>BOND
     1    24    25    2
     2    25    26   ar
     3    26    27   ar
     4    27    28   ar
     5    28    29   ar
     6    29    30   ar
     7    30    31   ar
     8    31    32    1
     9    31    33   ar
    10    33    34   ar
    11    34    35   ar
    12    35    36    1
    13    36    37    1
    14    37    38    1
    15    37    23    1
    16    23     1    1
    17     1     2    1
    18     2     3    1
    19     3     4    1
    20     4     9    1
    21     9    11    1
    22    11    12    1
    23    12    13   ar
    24    13    14   ar
    25    14    15   ar
    26    15    16   ar
    27    16    17   ar
    28    17    18    1
    29    16    19    1
    30    19    20    1
    31    20    21    1
    32    21    22    1
    33     4     5    1
    34     5     6    1
    35     4     7    1
    36     7     8    1
    37    35    25   ar
    38     6     1    1
    39    34    28   ar
    40     8     1    1
    41    37    33    1
    42    17    12   ar
    43    22    15    1
    44    38    39    1
    45     9    10    1
