@<TRIPOS>MOLECULE
*****
 29 32 0 0 0
SMALL
GASTEIGER

@<TRIPOS>ATOM
      1 C         143.0863  138.4099  162.6007 C.3     1  UNL1        0.0939
      2 C         139.6246  140.1994  163.3519 C.3     1  UNL1        0.0384
      3 C         138.7787  139.0256  163.7478 C.3     1  UNL1        0.0072
      4 C         139.3687  137.6465  163.7613 C.3     1  UNL1        0.0177
      5 C         140.8045  137.4413  163.3790 C.3     1  UNL1        0.0722
      6 N         141.6504  138.6152  162.9831 N.3     1  UNL1       -0.2709
      7 C         141.0604  139.9941  162.9695 C.3     1  UNL1        0.0765
      8 C         138.8201  143.9232  162.2401 C.ar    1  UNL1        0.1384
      9 C         137.8547  144.3365  163.3111 C.ar    1  UNL1        0.0369
     10 C         137.4793  143.3708  164.3958 C.ar    1  UNL1        0.0028
     11 C         138.0692  141.9918  164.4094 C.ar    1  UNL1       -0.0040
     12 C         139.0346  141.5785  163.3383 C.ar    1  UNL1       -0.0181
     13 C         139.4101  142.5442  162.2537 C.ar    1  UNL1        0.0327
     14 C         140.1772  144.4829  160.0965 C.3     1  UNL1        0.2525
     15 O         139.1956  144.8890  161.1555 O.3     1  UNL1       -0.4714
     16 C         144.1787  138.9881  163.4507 C.3     1  UNL1        0.1123
     17 N         143.8677  140.0790  164.4321 N.am    1  UNL1       -0.2606
     18 C         144.1404  141.5415  164.2403 C.3     1  UNL1        0.1169
     19 C         143.6705  142.2653  165.4673 C.3     1  UNL1        0.1212
     20 N         143.1074  141.2502  166.4173 N.am    1  UNL1       -0.2413
     21 C         143.2293  139.8990  165.7775 C.2     1  UNL1        0.3111
     22 O         142.7899  138.5964  166.3777 O.2     1  UNL1       -0.2520
     23 C         142.5248  141.5361  167.7695 C.ar    1  UNL1        0.0562
     24 C         143.3173  142.3133  168.7785 C.ar    1  UNL1        0.0150
     25 C         142.7348  142.5993  170.1308 C.ar    1  UNL1        0.0021
     26 C         141.3597  142.1081  170.4742 C.ar    1  UNL1        0.0115
     27 C         140.5672  141.3309  169.4653 C.ar    1  UNL1        0.0589
     28 CL        139.1921  140.8397  169.8087 Cl      1  UNL1       -0.0822
     29 C         141.1498  141.0449  168.1129 C.ar    1  UNL1        0.0263
@<TRIPOS>BOND
     1    14    15    1
     2    15     8    1
     3     8     9   ar
     4     9    10   ar
     5    10    11   ar
     6    11    12   ar
     7    12     2    1
     8     2     3    1
     9     3     4    1
    10     4     5    1
    11     5     6    1
    12     6     1    1
    13     1    16    1
    14    16    17    1
    15    17    18    1
    16    18    19    1
    17    19    20    1
    18    20    23    1
    19    23    24   ar
    20    24    25   ar
    21    25    26   ar
    22    26    27   ar
    23    27    28    1
    24    27    29   ar
    25    20    21   am
    26    21    22    2
    27     6     7    1
    28    12    13   ar
    29    13     8   ar
    30     7     2    1
    31    21    17   am
    32    29    23   ar
@<TRIPOS>MOLECULE
*****
 29 32 0 0 0
SMALL
GASTEIGER

@<TRIPOS>ATOM
      1 C         140.7373  137.9612  161.7041 C.3     1  UNL1        0.0939
      2 C         142.8781  141.1338  162.7533 C.3     1  UNL1        0.0384
      3 C         144.2621  140.5554  162.7510 C.3     1  UNL1        0.0072
      4 C         144.4711  139.1121  162.3998 C.3     1  UNL1        0.0177
      5 C         143.2962  138.2474  162.0508 C.3     1  UNL1        0.0722
      6 N         141.9122  138.8259  162.0531 N.3     1  UNL1       -0.2709
      7 C         141.7032  140.2691  162.4043 C.3     1  UNL1        0.0765
      8 C         141.0889  144.5150  163.8101 C.ar    1  UNL1        0.1384
      9 C         142.2508  145.4635  163.8070 C.ar    1  UNL1        0.0369
     10 C         143.6219  144.9689  163.4527 C.ar    1  UNL1        0.0028
     11 C         143.8310  143.5257  163.1015 C.ar    1  UNL1       -0.0040
     12 C         142.6691  142.5771  163.1045 C.ar    1  UNL1       -0.0181
     13 C         141.2980  143.0718  163.4588 C.ar    1  UNL1        0.0327
     14 C         138.5133  144.1753  163.8433 C.3     1  UNL1        0.2525
     15 O         139.7178  145.0096  164.1644 O.3     1  UNL1       -0.4714
     16 C         139.6485  137.7334  162.7105 C.3     1  UNL1        0.1123
     17 N         139.3068  138.8063  163.7015 N.am    1  UNL1       -0.2606
     18 C         138.1701  139.7789  163.5912 C.3     1  UNL1        0.1169
     19 C         138.2027  140.6687  164.7984 C.3     1  UNL1        0.1212
     20 N         139.3594  140.2461  165.6547 N.am    1  UNL1       -0.2413
     21 C         140.0418  139.0951  164.9768 C.2     1  UNL1        0.3111
     22 O         141.2476  138.3617  165.4850 O.2     1  UNL1       -0.2520
     23 C         139.7629  140.8657  166.9597 C.ar    1  UNL1        0.0562
     24 C         140.2734  142.2758  166.9944 C.ar    1  UNL1        0.0150
     25 C         140.6770  142.8955  168.2994 C.ar    1  UNL1        0.0021
     26 C         140.5699  142.1051  169.5698 C.ar    1  UNL1        0.0115
     27 C         140.0594  140.6951  169.5351 C.ar    1  UNL1        0.0589
     28 CL        139.9524  139.9047  170.8056 Cl      1  UNL1       -0.0822
     29 C         139.6559  140.0754  168.2301 C.ar    1  UNL1        0.0263
@<TRIPOS>BOND
     1    14    15    1
     2    15     8    1
     3     8     9   ar
     4     9    10   ar
     5    10    11   ar
     6    11    12   ar
     7    12     2    1
     8     2     3    1
     9     3     4    1
    10     4     5    1
    11     5     6    1
    12     6     1    1
    13     1    16    1
    14    16    17    1
    15    17    18    1
    16    18    19    1
    17    19    20    1
    18    20    23    1
    19    23    24   ar
    20    24    25   ar
    21    25    26   ar
    22    26    27   ar
    23    27    28    1
    24    27    29   ar
    25    20    21   am
    26    21    22    2
    27     6     7    1
    28    12    13   ar
    29    13     8   ar
    30     7     2    1
    31    21    17   am
    32    29    23   ar
@<TRIPOS>MOLECULE
*****
 29 32 0 0 0
SMALL
GASTEIGER

@<TRIPOS>ATOM
      1 C         142.5883  137.9891  163.2030 C.3     1  UNL1        0.0939
      2 C         143.0836  141.9170  163.4799 C.3     1  UNL1        0.0384
      3 C         144.5322  141.9938  163.8612 C.3     1  UNL1        0.0072
      4 C         145.3330  140.7358  164.0231 C.3     1  UNL1        0.0177
      5 C         144.6850  139.4009  163.8038 C.3     1  UNL1        0.0722
      6 N         143.2362  139.3240  163.4224 N.3     1  UNL1       -0.2709
      7 C         142.4356  140.5820  163.2605 C.3     1  UNL1        0.0765
      8 C         140.1261  144.3818  162.5168 C.ar    1  UNL1        0.1384
      9 C         140.6813  145.6910  162.9941 C.ar    1  UNL1        0.0369
     10 C         142.0373  145.7421  163.6333 C.ar    1  UNL1        0.0028
     11 C         142.8381  144.4841  163.7953 C.ar    1  UNL1       -0.0040
     12 C         142.2828  143.1750  163.3180 C.ar    1  UNL1       -0.0181
     13 C         140.9268  143.1239  162.6787 C.ar    1  UNL1        0.0327
     14 C         137.8813  143.1426  162.0979 C.3     1  UNL1        0.2525
     15 O         138.7701  144.3307  161.8776 O.3     1  UNL1       -0.4714
     16 C         141.6620  137.4256  164.2397 C.3     1  UNL1        0.1123
     17 N         141.0215  138.3344  165.2466 N.am    1  UNL1       -0.2606
     18 C         139.5996  138.8116  165.2250 C.3     1  UNL1        0.1169
     19 C         139.3898  139.6976  166.4170 C.3     1  UNL1        0.1212
     20 N         140.6821  139.7681  167.1754 N.am    1  UNL1       -0.2413
     21 C         141.6905  138.9255  166.4520 C.2     1  UNL1        0.3111
     22 O         143.1174  138.7117  166.8621 O.2     1  UNL1       -0.2520
     23 C         140.9234  140.5446  168.4357 C.ar    1  UNL1        0.0562
     24 C         141.5522  139.8741  169.6210 C.ar    1  UNL1        0.0150
     25 C         141.7936  140.6506  170.8815 C.ar    1  UNL1        0.0021
     26 C         141.4062  142.0978  170.9566 C.ar    1  UNL1        0.0115
     27 C         140.7775  142.7684  169.7712 C.ar    1  UNL1        0.0589
     28 CL        140.3901  144.2156  169.8464 Cl      1  UNL1       -0.0822
     29 C         140.5361  141.9918  168.5108 C.ar    1  UNL1        0.0263
@<TRIPOS>BOND
     1    14    15    1
     2    15     8    1
     3     8     9   ar
     4     9    10   ar
     5    10    11   ar
     6    11    12   ar
     7    12     2    1
     8     2     3    1
     9     3     4    1
    10     4     5    1
    11     5     6    1
    12     6     1    1
    13     1    16    1
    14    16    17    1
    15    17    18    1
    16    18    19    1
    17    19    20    1
    18    20    23    1
    19    23    24   ar
    20    24    25   ar
    21    25    26   ar
    22    26    27   ar
    23    27    28    1
    24    27    29   ar
    25    20    21   am
    26    21    22    2
    27     6     7    1
    28    12    13   ar
    29    13     8   ar
    30     7     2    1
    31    21    17   am
    32    29    23   ar
@<TRIPOS>MOLECULE
*****
 29 32 0 0 0
SMALL
GASTEIGER

@<TRIPOS>ATOM
      1 C         145.2181  139.8971  164.0533 C.3     1  UNL1        0.0939
      2 C         141.4548  138.7351  164.5405 C.3     1  UNL1        0.0384
      3 C         141.2303  137.9631  163.2743 C.3     1  UNL1        0.0072
      4 C         142.3351  137.8356  162.2676 C.3     1  UNL1        0.0177
      5 C         143.6643  138.4803  162.5273 C.3     1  UNL1        0.0722
      6 N         143.8888  139.2524  163.7936 N.3     1  UNL1       -0.2709
      7 C         142.7841  139.3798  164.8002 C.3     1  UNL1        0.0765
      8 C         139.4373  139.8405  167.7744 C.ar    1  UNL1        0.1384
      9 C         138.1406  139.1175  167.5605 C.ar    1  UNL1        0.0369
     10 C         137.9486  138.2671  166.3398 C.ar    1  UNL1        0.0028
     11 C         139.0533  138.1396  165.3332 C.ar    1  UNL1       -0.0040
     12 C         140.3500  138.8626  165.5472 C.ar    1  UNL1       -0.0181
     13 C         140.5420  139.7130  166.7678 C.ar    1  UNL1        0.0327
     14 C         140.2511  142.0503  168.8718 C.3     1  UNL1        0.2525
     15 O         139.6294  140.6909  168.9951 O.3     1  UNL1       -0.4714
     16 C         145.5186  141.2520  163.4840 C.3     1  UNL1        0.1123
     17 N         144.4766  141.9779  162.6856 N.am    1  UNL1       -0.2606
     18 C         144.4694  142.1508  161.1956 C.3     1  UNL1        0.1169
     19 C         143.2472  142.9381  160.8263 C.3     1  UNL1        0.1212
     20 N         142.4991  143.2518  162.0880 N.am    1  UNL1       -0.2413
     21 C         143.2589  142.6584  163.2371 C.2     1  UNL1        0.3111
     22 O         142.8693  142.7324  164.6837 O.2     1  UNL1       -0.2520
     23 C         141.2164  144.0235  162.1836 C.ar    1  UNL1        0.0562
     24 C         141.1099  145.3820  161.5566 C.ar    1  UNL1        0.0150
     25 C         139.8272  146.1537  161.6523 C.ar    1  UNL1        0.0021
     26 C         138.6510  145.5669  162.3749 C.ar    1  UNL1        0.0115
     27 C         138.7575  144.2084  163.0019 C.ar    1  UNL1        0.0589
     28 CL        137.5813  143.6216  163.7246 Cl      1  UNL1       -0.0822
     29 C         140.0402  143.4367  162.9063 C.ar    1  UNL1        0.0263
@<TRIPOS>BOND
     1    14    15    1
     2    15     8    1
     3     8     9   ar
     4     9    10   ar
     5    10    11   ar
     6    11    12   ar
     7    12     2    1
     8     2     3    1
     9     3     4    1
    10     4     5    1
    11     5     6    1
    12     6     1    1
    13     1    16    1
    14    16    17    1
    15    17    18    1
    16    18    19    1
    17    19    20    1
    18    20    23    1
    19    23    24   ar
    20    24    25   ar
    21    25    26   ar
    22    26    27   ar
    23    27    28    1
    24    27    29   ar
    25    20    21   am
    26    21    22    2
    27     6     7    1
    28    12    13   ar
    29    13     8   ar
    30     7     2    1
    31    21    17   am
    32    29    23   ar
@<TRIPOS>MOLECULE
*****
 29 32 0 0 0
SMALL
GASTEIGER

@<TRIPOS>ATOM
      1 C         145.1225  142.3905  162.7139 C.3     1  UNL1        0.0939
      2 C         141.2962  143.3239  163.2021 C.3     1  UNL1        0.0384
      3 C         141.3951  144.7974  163.4649 C.3     1  UNL1        0.0072
      4 C         142.7365  145.4686  163.4774 C.3     1  UNL1        0.0177
      5 C         143.9790  144.6663  163.2270 C.3     1  UNL1        0.0722
      6 N         143.8800  143.1928  162.9642 N.3     1  UNL1       -0.2709
      7 C         142.5386  142.5216  162.9518 C.3     1  UNL1        0.0765
      8 C         138.5217  140.4915  163.0300 C.ar    1  UNL1        0.1384
      9 C         137.2721  141.3102  163.1647 C.ar    1  UNL1        0.0369
     10 C         137.3638  142.8001  163.3119 C.ar    1  UNL1        0.0028
     11 C         138.7052  143.4714  163.3244 C.ar    1  UNL1       -0.0040
     12 C         139.9548  142.6527  163.1897 C.ar    1  UNL1       -0.0181
     13 C         139.8630  141.1627  163.0424 C.ar    1  UNL1        0.0327
     14 C         138.8555  138.1088  164.0106 C.3     1  UNL1        0.2525
     15 O         138.4300  139.0015  162.8828 O.3     1  UNL1       -0.4714
     16 C         145.5808  141.3824  163.7257 C.3     1  UNL1        0.1123
     17 N         144.5731  140.5935  164.5080 N.am    1  UNL1       -0.2606
     18 C         144.2371  139.1456  164.3057 C.3     1  UNL1        0.1169
     19 C         143.1807  138.7712  165.3027 C.3     1  UNL1        0.1212
     20 N         142.8638  139.9877  166.1212 N.am    1  UNL1       -0.2413
     21 C         143.7243  141.1139  165.6300 C.2     1  UNL1        0.3111
     22 O         143.7344  142.5145  166.1667 O.2     1  UNL1       -0.2520
     23 C         141.8623  140.0644  167.2351 C.ar    1  UNL1        0.0562
     24 C         140.4022  139.8804  166.9449 C.ar    1  UNL1        0.0150
     25 C         139.4006  139.9571  168.0588 C.ar    1  UNL1        0.0021
     26 C         139.8591  140.2178  169.4630 C.ar    1  UNL1        0.0115
     27 C         141.3192  140.4018  169.7533 C.ar    1  UNL1        0.0589
     28 CL        141.7777  140.6626  171.1575 Cl      1  UNL1       -0.0822
     29 C         142.3208  140.3251  168.6393 C.ar    1  UNL1        0.0263
@<TRIPOS>BOND
     1    14    15    1
     2    15     8    1
     3     8     9   ar
     4     9    10   ar
     5    10    11   ar
     6    11    12   ar
     7    12     2    1
     8     2     3    1
     9     3     4    1
    10     4     5    1
    11     5     6    1
    12     6     1    1
    13     1    16    1
    14    16    17    1
    15    17    18    1
    16    18    19    1
    17    19    20    1
    18    20    23    1
    19    23    24   ar
    20    24    25   ar
    21    25    26   ar
    22    26    27   ar
    23    27    28    1
    24    27    29   ar
    25    20    21   am
    26    21    22    2
    27     6     7    1
    28    12    13   ar
    29    13     8   ar
    30     7     2    1
    31    21    17   am
    32    29    23   ar
@<TRIPOS>MOLECULE
*****
 29 32 0 0 0
SMALL
GASTEIGER

@<TRIPOS>ATOM
      1 C         140.6476  137.4492  163.8098 C.3     1  UNL1        0.0939
      2 C         140.2183  139.7817  166.9919 C.3     1  UNL1        0.0384
      3 C         138.8037  139.4712  167.3822 C.3     1  UNL1        0.0072
      4 C         138.0037  138.4866  166.5817 C.3     1  UNL1        0.0177
      5 C         138.6183  137.8126  165.3909 C.3     1  UNL1        0.0722
      6 N         140.0330  138.1232  165.0006 N.3     1  UNL1       -0.2709
      7 C         140.8330  139.1077  165.8011 C.3     1  UNL1        0.0765
      8 C         141.1215  142.7296  169.4907 C.ar    1  UNL1        0.1384
      9 C         142.6183  142.7353  169.3932 C.ar    1  UNL1        0.0369
     10 C         143.3151  141.7564  168.4952 C.ar    1  UNL1        0.0028
     11 C         142.5152  140.7719  167.6948 C.ar    1  UNL1       -0.0040
     12 C         141.0184  140.7662  167.7923 C.ar    1  UNL1       -0.0181
     13 C         140.3216  141.7450  168.6903 C.ar    1  UNL1        0.0327
     14 C         139.2295  143.2761  171.1852 C.3     1  UNL1        0.2525
     15 O         140.4247  143.7084  170.3887 O.3     1  UNL1       -0.4714
     16 C         140.1432  137.7563  162.4309 C.3     1  UNL1        0.1123
     17 N         139.5079  139.0842  162.1432 N.am    1  UNL1       -0.2606
     18 C         138.0673  139.3154  161.7947 C.3     1  UNL1        0.1169
     19 C         137.8707  140.7883  161.5895 C.3     1  UNL1        0.1212
     20 N         139.1896  141.4674  161.8113 N.am    1  UNL1       -0.2413
     21 C         140.2014  140.4142  162.1535 C.2     1  UNL1        0.3111
     22 O         141.6522  140.6497  162.4533 O.2     1  UNL1       -0.2520
     23 C         139.4508  142.9408  161.7089 C.ar    1  UNL1        0.0562
     24 C         139.0652  143.8511  162.8371 C.ar    1  UNL1        0.0150
     25 C         139.3264  145.3246  162.7347 C.ar    1  UNL1        0.0021
     26 C         139.9732  145.8879  161.5041 C.ar    1  UNL1        0.0115
     27 C         140.3588  144.9777  160.3760 C.ar    1  UNL1        0.0589
     28 CL        141.0057  145.5410  159.1453 Cl      1  UNL1       -0.0822
     29 C         140.0977  143.5041  160.4783 C.ar    1  UNL1        0.0263
@<TRIPOS>BOND
     1    14    15    1
     2    15     8    1
     3     8     9   ar
     4     9    10   ar
     5    10    11   ar
     6    11    12   ar
     7    12     2    1
     8     2     3    1
     9     3     4    1
    10     4     5    1
    11     5     6    1
    12     6     1    1
    13     1    16    1
    14    16    17    1
    15    17    18    1
    16    18    19    1
    17    19    20    1
    18    20    23    1
    19    23    24   ar
    20    24    25   ar
    21    25    26   ar
    22    26    27   ar
    23    27    28    1
    24    27    29   ar
    25    20    21   am
    26    21    22    2
    27     6     7    1
    28    12    13   ar
    29    13     8   ar
    30     7     2    1
    31    21    17   am
    32    29    23   ar
@<TRIPOS>MOLECULE
*****
 29 32 0 0 0
SMALL
GASTEIGER

@<TRIPOS>ATOM
      1 C         141.4646  137.7445  162.2404 C.3     1  UNL1        0.0939
      2 C         142.1605  141.6514  162.2787 C.3     1  UNL1        0.0384
      3 C         143.6531  141.6750  162.1320 C.3     1  UNL1        0.0072
      4 C         144.4163  140.3884  162.0213 C.3     1  UNL1        0.0177
      5 C         143.6868  139.0782  162.0575 C.3     1  UNL1        0.0722
      6 N         142.1941  139.0547  162.2042 N.3     1  UNL1       -0.2709
      7 C         141.4310  140.3413  162.3149 C.3     1  UNL1        0.0765
      8 C         140.2399  144.9718  161.2605 C.ar    1  UNL1        0.1384
      9 C         139.8710  145.5112  162.6106 C.ar    1  UNL1        0.0369
     10 C         140.2652  144.7641  163.8501 C.ar    1  UNL1        0.0028
     11 C         141.0283  143.4775  163.7395 C.ar    1  UNL1       -0.0040
     12 C         141.3973  142.9381  162.3894 C.ar    1  UNL1       -0.0181
     13 C         141.0031  143.6852  161.1499 C.ar    1  UNL1        0.0327
     14 C         140.3263  145.2519  158.6790 C.3     1  UNL1        0.2525
     15 O         139.8458  145.7190  160.0210 O.3     1  UNL1       -0.4714
     16 C         141.0969  137.1269  163.5570 C.3     1  UNL1        0.1123
     17 N         140.3995  137.9471  164.6014 N.am    1  UNL1       -0.2606
     18 C         138.9304  137.9257  164.9036 C.3     1  UNL1        0.1169
     19 C         138.6718  138.8982  166.0160 C.3     1  UNL1        0.1212
     20 N         139.9810  139.5206  166.4014 N.am    1  UNL1       -0.2413
     21 C         141.0488  138.9328  165.5271 C.2     1  UNL1        0.3111
     22 O         142.5095  139.2713  165.5709 O.2     1  UNL1       -0.2520
     23 C         140.1863  140.5500  167.4728 C.ar    1  UNL1        0.0562
     24 C         140.2532  142.0045  167.1125 C.ar    1  UNL1        0.0150
     25 C         140.4585  143.0340  168.1839 C.ar    1  UNL1        0.0021
     26 C         140.5970  142.6089  169.6157 C.ar    1  UNL1        0.0115
     27 C         140.5301  141.1544  169.9761 C.ar    1  UNL1        0.0589
     28 CL        140.6686  140.7293  171.4080 Cl      1  UNL1       -0.0822
     29 C         140.3248  140.1249  168.9046 C.ar    1  UNL1        0.0263
@<TRIPOS>BOND
     1    14    15    1
     2    15     8    1
     3     8     9   ar
     4     9    10   ar
     5    10    11   ar
     6    11    12   ar
     7    12     2    1
     8     2     3    1
     9     3     4    1
    10     4     5    1
    11     5     6    1
    12     6     1    1
    13     1    16    1
    14    16    17    1
    15    17    18    1
    16    18    19    1
    17    19    20    1
    18    20    23    1
    19    23    24   ar
    20    24    25   ar
    21    25    26   ar
    22    26    27   ar
    23    27    28    1
    24    27    29   ar
    25    20    21   am
    26    21    22    2
    27     6     7    1
    28    12    13   ar
    29    13     8   ar
    30     7     2    1
    31    21    17   am
    32    29    23   ar
@<TRIPOS>MOLECULE
*****
 29 32 0 0 0
SMALL
GASTEIGER

@<TRIPOS>ATOM
      1 C         141.7423  145.6164  163.1000 C.3     1  UNL1        0.0939
      2 C         142.6423  142.5804  165.4922 C.3     1  UNL1        0.0384
      3 C         144.0345  142.2615  165.0341 C.3     1  UNL1        0.0072
      4 C         144.6627  143.0609  163.9312 C.3     1  UNL1        0.0177
      5 C         143.8987  144.1792  163.2865 C.3     1  UNL1        0.0722
      6 N         142.5064  144.4981  163.7447 N.3     1  UNL1       -0.2709
      7 C         141.8782  143.6987  164.8475 C.3     1  UNL1        0.0765
      8 C         142.2483  140.3400  168.7442 C.ar    1  UNL1        0.1384
      9 C         140.7577  140.1823  168.8009 C.ar    1  UNL1        0.0369
     10 C         139.8953  140.8240  167.7547 C.ar    1  UNL1        0.0028
     11 C         140.5234  141.6233  166.6518 C.ar    1  UNL1       -0.0040
     12 C         142.0140  141.7810  166.5951 C.ar    1  UNL1       -0.0181
     13 C         142.8764  141.1393  167.6413 C.ar    1  UNL1        0.0327
     14 C         142.8473  138.2841  170.2154 C.3     1  UNL1        0.2525
     15 O         143.1107  139.6983  169.7904 O.3     1  UNL1       -0.4714
     16 C         140.6292  145.3098  162.1424 C.3     1  UNL1        0.1123
     17 N         139.6678  144.1979  162.4412 N.am    1  UNL1       -0.2606
     18 C         138.2540  144.3585  162.9162 C.3     1  UNL1        0.1169
     19 C         137.6638  142.9899  163.0860 C.3     1  UNL1        0.1212
     20 N         138.7128  141.9835  162.7160 N.am    1  UNL1       -0.2413
     21 C         139.9513  142.7301  162.3175 C.2     1  UNL1        0.3111
     22 O         141.2460  142.1166  161.8733 O.2     1  UNL1       -0.2520
     23 C         138.5515  140.4925  162.7403 C.ar    1  UNL1        0.0562
     24 C         137.9723  139.7814  161.5533 C.ar    1  UNL1        0.0150
     25 C         137.8110  138.2903  161.5775 C.ar    1  UNL1        0.0021
     26 C         138.2289  137.5103  162.7887 C.ar    1  UNL1        0.0115
     27 C         138.8081  138.2214  163.9756 C.ar    1  UNL1        0.0589
     28 CL        139.2261  137.4413  165.1868 Cl      1  UNL1       -0.0822
     29 C         138.9694  139.7125  163.9514 C.ar    1  UNL1        0.0263
@<TRIPOS>BOND
     1    14    15    1
     2    15     8    1
     3     8     9   ar
     4     9    10   ar
     5    10    11   ar
     6    11    12   ar
     7    12     2    1
     8     2     3    1
     9     3     4    1
    10     4     5    1
    11     5     6    1
    12     6     1    1
    13     1    16    1
    14    16    17    1
    15    17    18    1
    16    18    19    1
    17    19    20    1
    18    20    23    1
    19    23    24   ar
    20    24    25   ar
    21    25    26   ar
    22    26    27   ar
    23    27    28    1
    24    27    29   ar
    25    20    21   am
    26    21    22    2
    27     6     7    1
    28    12    13   ar
    29    13     8   ar
    30     7     2    1
    31    21    17   am
    32    29    23   ar
@<TRIPOS>MOLECULE
*****
 29 32 0 0 0
SMALL
GASTEIGER

@<TRIPOS>ATOM
      1 C         138.0311  138.8045  166.2777 C.3     1  UNL1        0.0939
      2 C         140.0612  142.2028  165.9941 C.3     1  UNL1        0.0384
      3 C         140.6781  142.2793  167.3592 C.3     1  UNL1        0.0072
      4 C         140.4126  141.1975  168.3639 C.3     1  UNL1        0.0177
      5 C         139.5303  140.0392  168.0034 C.3     1  UNL1        0.0722
      6 N         138.9134  139.9628  166.6382 N.3     1  UNL1       -0.2709
      7 C         139.1789  141.0445  165.6336 C.3     1  UNL1        0.0765
      8 C         142.0028  144.7098  163.6076 C.ar    1  UNL1        0.1384
      9 C         140.8577  145.4479  162.9801 C.ar    1  UNL1        0.0369
     10 C         139.4471  145.1044  163.3572 C.ar    1  UNL1        0.0028
     11 C         139.1816  144.0227  164.3618 C.ar    1  UNL1       -0.0040
     12 C         140.3267  143.2845  164.9894 C.ar    1  UNL1       -0.0181
     13 C         141.7373  143.6281  164.6123 C.ar    1  UNL1        0.0327
     14 C         144.2924  144.0188  162.5926 C.3     1  UNL1        0.2525
     15 O         143.4134  145.0533  163.2305 O.3     1  UNL1       -0.4714
     16 C         138.6248  137.5731  165.6604 C.3     1  UNL1        0.1123
     17 N         139.5784  137.6965  164.5091 N.am    1  UNL1       -0.2606
     18 C         141.0067  137.2383  164.4942 C.3     1  UNL1        0.1169
     19 C         141.5821  137.5584  163.1464 C.3     1  UNL1        0.1212
     20 N         140.5095  138.2144  162.3283 N.am    1  UNL1       -0.2413
     21 C         139.2711  138.2997  163.1705 C.2     1  UNL1        0.3111
     22 O         137.9564  138.8854  162.7482 O.2     1  UNL1       -0.2520
     23 C         140.6505  138.6997  160.9161 C.ar    1  UNL1        0.0562
     24 C         139.6045  138.3565  159.8972 C.ar    1  UNL1        0.0150
     25 C         139.7455  138.8418  158.4849 C.ar    1  UNL1        0.0021
     26 C         140.9324  139.6703  158.0915 C.ar    1  UNL1        0.0115
     27 C         141.9784  140.0135  159.1104 C.ar    1  UNL1        0.0589
     28 CL        143.1654  140.8421  158.7170 Cl      1  UNL1       -0.0822
     29 C         141.8374  139.5282  160.5227 C.ar    1  UNL1        0.0263
@<TRIPOS>BOND
     1    14    15    1
     2    15     8    1
     3     8     9   ar
     4     9    10   ar
     5    10    11   ar
     6    11    12   ar
     7    12     2    1
     8     2     3    1
     9     3     4    1
    10     4     5    1
    11     5     6    1
    12     6     1    1
    13     1    16    1
    14    16    17    1
    15    17    18    1
    16    18    19    1
    17    19    20    1
    18    20    23    1
    19    23    24   ar
    20    24    25   ar
    21    25    26   ar
    22    26    27   ar
    23    27    28    1
    24    27    29   ar
    25    20    21   am
    26    21    22    2
    27     6     7    1
    28    12    13   ar
    29    13     8   ar
    30     7     2    1
    31    21    17   am
    32    29    23   ar
