@<TRIPOS>MOLECULE
*****
 33 36 0 0 0
SMALL
GASTEIGER

@<TRIPOS>ATOM
      1 N         141.6979  138.1819  165.2123 N.pl3   1  UNL1       -0.2802
      2 H         141.8140  137.2259  165.4170 H       1  UNL1        0.1552
      3 C         141.6948  138.6486  163.7868 C.ar    1  UNL1        0.2208
      4 N         141.5919  137.6512  162.6712 N.ar    1  UNL1       -0.2111
      5 C         141.5888  138.1179  161.2457 C.ar    1  UNL1        0.1147
      6 C         141.6888  139.5821  160.9358 C.ar    1  UNL1        0.0960
      7 CL        141.6858  140.0489  159.5102 Cl      1  UNL1       -0.0790
      8 C         141.7918  140.5796  162.0514 C.ar    1  UNL1        0.1138
      9 N         141.7948  140.1128  163.4768 N.ar    1  UNL1       -0.2111
     10 C         141.8917  142.0439  161.7414 C.ar    1  UNL1        0.1031
     11 C         143.0546  142.7292  161.0872 C.ar    1  UNL1        0.1196
     12 N         142.7279  144.1887  160.9727 N.ar    1  UNL1       -0.2248
     13 C         141.3631  144.4054  161.5562 C.ar    1  UNL1        0.1479
     14 C         140.5242  145.6385  161.7162 C.ar    1  UNL1        0.0374
     15 C         139.1685  145.5459  162.3514 C.ar    1  UNL1        0.0046
     16 C         138.6517  144.2203  162.8265 C.ar    1  UNL1        0.0191
     17 C         139.4906  142.9873  162.6664 C.ar    1  UNL1        0.0815
     18 N         140.8463  143.0798  162.0313 N.ar    1  UNL1       -0.2874
     19 C         140.1570  139.6886  166.6633 C.ar    1  UNL1        0.1517
     20 C         139.9832  140.6783  167.7770 C.ar    1  UNL1        0.0341
     21 C         141.1765  141.1509  168.5534 C.ar    1  UNL1       -0.0145
     22 C         142.5435  140.6339  168.2161 C.ar    1  UNL1       -0.0026
     23 C         142.7173  139.6442  167.1024 C.ar    1  UNL1        0.0174
     24 C         141.5240  139.1715  166.3260 C.ar    1  UNL1        0.0849
     25 C         138.2596  140.1522  164.9500 C.3     1  UNL1        0.2525
     26 O         138.9637  139.2160  165.8869 O.3     1  UNL1       -0.4702
     27 C         141.0026  142.1406  169.6671 C.3     1  UNL1        0.0810
     28 C         140.4586  143.5081  169.3770 C.3     1  UNL1        0.1439
     29 O         139.8363  144.3165  170.4767 O.3     1  UNL1       -0.3816
     30 H         139.0248  143.8798  170.7795 H       1  UNL1        0.2105
     31 C         141.3727  141.7629  171.0707 C.3     1  UNL1        0.1439
     32 O         140.4846  142.1588  172.2129 O.3     1  UNL1       -0.3816
     33 H         140.4815  143.1249  172.3002 H       1  UNL1        0.2105
@<TRIPOS>BOND
     1    25    26    1
     2    26    19    1
     3    19    20   ar
     4    20    21   ar
     5    21    27    1
     6    27    28    1
     7    28    29    1
     8    27    31    1
     9    31    32    1
    10    21    22   ar
    11    22    23   ar
    12    23    24   ar
    13    24     1    1
    14     1     3    1
    15     3     4   ar
    16     4     5   ar
    17     5     6   ar
    18     6     7    1
    19     6     8   ar
    20     8    10    1
    21    10    11   ar
    22    11    12   ar
    23    12    13   ar
    24    13    14   ar
    25    14    15   ar
    26    15    16   ar
    27    16    17   ar
    28    17    18   ar
    29     8     9   ar
    30    24    19   ar
    31     9     3   ar
    32    18    10   ar
    33    18    13   ar
    34    29    30    1
    35    32    33    1
    36     1     2    1
@<TRIPOS>MOLECULE
*****
 33 36 0 0 0
SMALL
GASTEIGER

@<TRIPOS>ATOM
      1 N         140.6412  138.2722  164.9855 N.pl3   1  UNL1       -0.2802
      2 H         140.9897  137.3534  165.0449 H       1  UNL1        0.1552
      3 C         139.9258  138.7244  163.7471 C.ar    1  UNL1        0.2208
      4 N         138.7553  137.9423  163.2293 N.ar    1  UNL1       -0.2111
      5 C         138.0399  138.3945  161.9909 C.ar    1  UNL1        0.1147
      6 C         138.4950  139.6288  161.2703 C.ar    1  UNL1        0.0960
      7 CL        137.7796  140.0810  160.0318 Cl      1  UNL1       -0.0790
      8 C         139.6656  140.4110  161.7881 C.ar    1  UNL1        0.1138
      9 N         140.3809  139.9588  163.0265 N.ar    1  UNL1       -0.2111
     10 C         140.1207  141.6454  161.0675 C.ar    1  UNL1        0.1031
     11 C         140.8930  141.6817  159.7822 C.ar    1  UNL1        0.1196
     12 N         141.1329  143.1189  159.4261 N.ar    1  UNL1       -0.2248
     13 C         140.5089  143.9709  160.4914 C.ar    1  UNL1        0.1479
     14 C         140.4296  145.4582  160.6687 C.ar    1  UNL1        0.0374
     15 C         139.7247  146.0348  161.8605 C.ar    1  UNL1        0.0046
     16 C         139.0990  145.1241  162.8750 C.ar    1  UNL1        0.0191
     17 C         139.1784  143.6368  162.6977 C.ar    1  UNL1        0.0815
     18 N         139.8833  143.0601  161.5059 N.ar    1  UNL1       -0.2874
     19 C         139.6287  139.7932  166.8325 C.ar    1  UNL1        0.1517
     20 C         139.8132  140.7409  167.9806 C.ar    1  UNL1        0.0341
     21 C         141.1947  141.1152  168.4295 C.ar    1  UNL1       -0.0145
     22 C         142.3916  140.5419  167.7305 C.ar    1  UNL1       -0.0026
     23 C         142.2070  139.5943  166.5825 C.ar    1  UNL1        0.0174
     24 C         140.8256  139.2199  166.1335 C.ar    1  UNL1        0.0849
     25 C         137.5263  138.2815  167.0445 C.3     1  UNL1        0.2525
     26 O         138.2473  139.4189  166.3836 O.3     1  UNL1       -0.4702
     27 C         141.3791  142.0629  169.5775 C.3     1  UNL1        0.0810
     28 C         140.2363  142.3465  170.5068 C.3     1  UNL1        0.1439
     29 O         140.4304  142.2350  171.9901 O.3     1  UNL1       -0.3816
     30 H         140.6047  141.3101  172.2247 H       1  UNL1        0.2105
     31 C         142.7062  142.7269  169.7962 C.3     1  UNL1        0.1439
     32 O         143.0440  143.3037  171.1390 O.3     1  UNL1       -0.3816
     33 H         142.4554  144.0514  171.3271 H       1  UNL1        0.2105
@<TRIPOS>BOND
     1    25    26    1
     2    26    19    1
     3    19    20   ar
     4    20    21   ar
     5    21    27    1
     6    27    28    1
     7    28    29    1
     8    27    31    1
     9    31    32    1
    10    21    22   ar
    11    22    23   ar
    12    23    24   ar
    13    24     1    1
    14     1     3    1
    15     3     4   ar
    16     4     5   ar
    17     5     6   ar
    18     6     7    1
    19     6     8   ar
    20     8    10    1
    21    10    11   ar
    22    11    12   ar
    23    12    13   ar
    24    13    14   ar
    25    14    15   ar
    26    15    16   ar
    27    16    17   ar
    28    17    18   ar
    29     8     9   ar
    30    24    19   ar
    31     9     3   ar
    32    18    10   ar
    33    18    13   ar
    34    29    30    1
    35    32    33    1
    36     1     2    1
@<TRIPOS>MOLECULE
*****
 33 36 0 0 0
SMALL
GASTEIGER

@<TRIPOS>ATOM
      1 N         139.2679  138.3007  165.5732 N.pl3   1  UNL1       -0.2802
      2 H         139.0315  137.3747  165.8097 H       1  UNL1        0.1552
      3 C         138.9202  138.8406  164.2176 C.ar    1  UNL1        0.2208
      4 N         138.5057  137.9046  163.1213 N.ar    1  UNL1       -0.2111
      5 C         138.1579  138.4445  161.7657 C.ar    1  UNL1        0.1147
      6 C         138.2247  139.9205  161.5065 C.ar    1  UNL1        0.0960
      7 CL        137.8769  140.4604  160.1510 Cl      1  UNL1       -0.0790
      8 C         138.6392  140.8565  162.6030 C.ar    1  UNL1        0.1138
      9 N         138.9869  140.3166  163.9584 N.ar    1  UNL1       -0.2111
     10 C         138.7059  142.3325  162.3438 C.ar    1  UNL1        0.1031
     11 C         137.7543  143.3644  162.8726 C.ar    1  UNL1        0.1196
     12 N         138.1963  144.7052  162.3659 N.ar    1  UNL1       -0.2248
     13 C         139.4210  144.5020  161.5240 C.ar    1  UNL1        0.1479
     14 C         140.2901  145.4629  160.7681 C.ar    1  UNL1        0.0374
     15 C         141.4741  144.9572  159.9985 C.ar    1  UNL1        0.0046
     16 C         141.7891  143.4907  159.9849 C.ar    1  UNL1        0.0191
     17 C         140.9200  142.5299  160.7408 C.ar    1  UNL1        0.0815
     18 N         139.7360  143.0355  161.5104 N.ar    1  UNL1       -0.2874
     19 C         141.4600  139.3668  166.4721 C.ar    1  UNL1        0.1517
     20 C         142.1680  140.2376  167.4674 C.ar    1  UNL1        0.0341
     21 C         141.3919  140.9131  168.5589 C.ar    1  UNL1       -0.0145
     22 C         139.9078  140.7178  168.6551 C.ar    1  UNL1       -0.0026
     23 C         139.1998  139.8470  167.6599 C.ar    1  UNL1        0.0174
     24 C         139.9759  139.1715  166.5683 C.ar    1  UNL1        0.0849
     25 C         142.6467  139.4650  164.1629 C.3     1  UNL1        0.2525
     26 O         142.2362  138.6913  165.3806 O.3     1  UNL1       -0.4702
     27 C         142.0999  141.7839  169.5540 C.3     1  UNL1        0.0810
     28 C         143.5080  142.2298  169.2924 C.3     1  UNL1        0.1439
     29 O         144.2522  143.0134  170.3328 O.3     1  UNL1       -0.3816
     30 H         143.8278  143.8774  170.4518 H       1  UNL1        0.2105
     31 C         141.3999  142.2088  170.8108 C.3     1  UNL1        0.1439
     32 O         142.1487  142.2477  172.1099 O.3     1  UNL1       -0.3816
     33 H         142.4041  141.3467  172.3630 H       1  UNL1        0.2105
@<TRIPOS>BOND
     1    25    26    1
     2    26    19    1
     3    19    20   ar
     4    20    21   ar
     5    21    27    1
     6    27    28    1
     7    28    29    1
     8    27    31    1
     9    31    32    1
    10    21    22   ar
    11    22    23   ar
    12    23    24   ar
    13    24     1    1
    14     1     3    1
    15     3     4   ar
    16     4     5   ar
    17     5     6   ar
    18     6     7    1
    19     6     8   ar
    20     8    10    1
    21    10    11   ar
    22    11    12   ar
    23    12    13   ar
    24    13    14   ar
    25    14    15   ar
    26    15    16   ar
    27    16    17   ar
    28    17    18   ar
    29     8     9   ar
    30    24    19   ar
    31     9     3   ar
    32    18    10   ar
    33    18    13   ar
    34    29    30    1
    35    32    33    1
    36     1     2    1
@<TRIPOS>MOLECULE
*****
 33 36 0 0 0
SMALL
GASTEIGER

@<TRIPOS>ATOM
      1 N         140.3238  138.1646  164.8708 N.pl3   1  UNL1       -0.2802
      2 H         140.6102  137.2253  164.9402 H       1  UNL1        0.1552
      3 C         139.7058  138.6684  163.6003 C.ar    1  UNL1        0.2208
      4 N         138.5501  137.9353  162.9863 N.ar    1  UNL1       -0.2111
      5 C         137.9321  138.4391  161.7158 C.ar    1  UNL1        0.1147
      6 C         138.4698  139.6760  161.0592 C.ar    1  UNL1        0.0960
      7 CL        137.8518  140.1798  159.7887 Cl      1  UNL1       -0.0790
      8 C         139.6256  140.4091  161.6732 C.ar    1  UNL1        0.1138
      9 N         140.2435  139.9053  162.9437 N.ar    1  UNL1       -0.2111
     10 C         140.1633  141.6459  161.0167 C.ar    1  UNL1        0.1031
     11 C         141.0684  141.6871  159.8213 C.ar    1  UNL1        0.1196
     12 N         141.3548  143.1254  159.5061 N.ar    1  UNL1       -0.2248
     13 C         140.6265  143.9731  160.5067 C.ar    1  UNL1        0.1479
     14 C         140.5389  145.4595  160.6882 C.ar    1  UNL1        0.0374
     15 C         139.7148  146.0314  161.8034 C.ar    1  UNL1        0.0046
     16 C         138.9784  145.1170  162.7370 C.ar    1  UNL1        0.0191
     17 C         139.0661  143.6307  162.5555 C.ar    1  UNL1        0.0815
     18 N         139.8901  143.0587  161.4403 N.ar    1  UNL1       -0.2874
     19 C         141.8555  139.6784  166.3242 C.ar    1  UNL1        0.1517
     20 C         142.0370  140.6058  167.4892 C.ar    1  UNL1        0.0341
     21 C         140.8684  140.9467  168.3657 C.ar    1  UNL1       -0.0145
     22 C         139.5183  140.3602  168.0772 C.ar    1  UNL1       -0.0026
     23 C         139.3368  139.4328  166.9122 C.ar    1  UNL1        0.0174
     24 C         140.5054  139.0919  166.0357 C.ar    1  UNL1        0.0849
     25 C         143.8107  140.4310  164.7878 C.3     1  UNL1        0.2525
     26 O         143.0241  139.3376  165.4477 O.3     1  UNL1       -0.4702
     27 C         141.0499  141.8740  169.5305 C.3     1  UNL1        0.0810
     28 C         141.7856  141.4085  170.7521 C.3     1  UNL1        0.1439
     29 O         142.0412  142.3613  171.8822 O.3     1  UNL1       -0.3816
     30 H         142.6449  143.0602  171.5856 H       1  UNL1        0.2105
     31 C         140.4959  143.2668  169.4740 C.3     1  UNL1        0.1439
     32 O         139.7472  143.8243  170.6481 O.3     1  UNL1       -0.3816
     33 H         138.9237  143.3270  170.7723 H       1  UNL1        0.2105
@<TRIPOS>BOND
     1    25    26    1
     2    26    19    1
     3    19    20   ar
     4    20    21   ar
     5    21    27    1
     6    27    28    1
     7    28    29    1
     8    27    31    1
     9    31    32    1
    10    21    22   ar
    11    22    23   ar
    12    23    24   ar
    13    24     1    1
    14     1     3    1
    15     3     4   ar
    16     4     5   ar
    17     5     6   ar
    18     6     7    1
    19     6     8   ar
    20     8    10    1
    21    10    11   ar
    22    11    12   ar
    23    12    13   ar
    24    13    14   ar
    25    14    15   ar
    26    15    16   ar
    27    16    17   ar
    28    17    18   ar
    29     8     9   ar
    30    24    19   ar
    31     9     3   ar
    32    18    10   ar
    33    18    13   ar
    34    29    30    1
    35    32    33    1
    36     1     2    1
@<TRIPOS>MOLECULE
*****
 33 36 0 0 0
SMALL
GASTEIGER

@<TRIPOS>ATOM
      1 N         137.2926  140.7147  163.6377 N.pl3   1  UNL1       -0.2802
      2 H         136.3772  141.0704  163.7070 H       1  UNL1        0.1552
      3 C         137.8429  140.3157  162.3005 C.ar    1  UNL1        0.2208
      4 N         138.2942  138.9046  162.0660 N.ar    1  UNL1       -0.2111
      5 C         138.8445  138.5055  160.7289 C.ar    1  UNL1        0.1147
      6 C         138.9434  139.5177  159.6262 C.ar    1  UNL1        0.0960
      7 CL        139.4937  139.1187  158.2891 Cl      1  UNL1       -0.0790
      8 C         138.4920  140.9289  159.8608 C.ar    1  UNL1        0.1138
      9 N         137.9418  141.3278  161.1979 N.ar    1  UNL1       -0.2111
     10 C         138.5910  141.9410  158.7581 C.ar    1  UNL1        0.1031
     11 C         139.5574  143.0865  158.6969 C.ar    1  UNL1        0.1196
     12 N         139.3045  143.8387  157.4240 N.ar    1  UNL1       -0.2248
     13 C         138.1818  143.1581  156.6986 C.ar    1  UNL1        0.1479
     14 C         137.5040  143.4549  155.3938 C.ar    1  UNL1        0.0374
     15 C         136.3853  142.5787  154.9135 C.ar    1  UNL1        0.0046
     16 C         135.9443  141.4058  155.7380 C.ar    1  UNL1        0.0191
     17 C         136.6220  141.1091  157.0428 C.ar    1  UNL1        0.0815
     18 N         137.7408  141.9852  157.5231 N.ar    1  UNL1       -0.2874
     19 C         139.1018  141.6561  165.2471 C.ar    1  UNL1        0.1517
     20 C         139.9462  141.5131  166.4787 C.ar    1  UNL1        0.0341
     21 C         139.8255  140.2856  167.3324 C.ar    1  UNL1       -0.0145
     22 C         138.8605  139.2011  166.9545 C.ar    1  UNL1       -0.0026
     23 C         138.0162  139.3442  165.7229 C.ar    1  UNL1        0.0174
     24 C         138.1369  140.5717  164.8692 C.ar    1  UNL1        0.0849
     25 C         138.2816  144.0339  164.5966 C.3     1  UNL1        0.2525
     26 O         139.2226  142.8836  164.3934 O.3     1  UNL1       -0.4702
     27 C         140.6697  140.1426  168.5639 C.3     1  UNL1        0.0810
     28 C         142.1243  139.7978  168.4400 C.3     1  UNL1        0.1439
     29 O         143.0275  139.9172  169.6318 O.3     1  UNL1       -0.3816
     30 H         143.1030  140.8497  169.8882 H       1  UNL1        0.2105
     31 C         140.0595  140.3443  169.9192 C.3     1  UNL1        0.1439
     32 O         140.2923  139.3351  171.0043 O.3     1  UNL1       -0.3816
     33 H         139.8722  138.4955  170.7604 H       1  UNL1        0.2105
@<TRIPOS>BOND
     1    25    26    1
     2    26    19    1
     3    19    20   ar
     4    20    21   ar
     5    21    27    1
     6    27    28    1
     7    28    29    1
     8    27    31    1
     9    31    32    1
    10    21    22   ar
    11    22    23   ar
    12    23    24   ar
    13    24     1    1
    14     1     3    1
    15     3     4   ar
    16     4     5   ar
    17     5     6   ar
    18     6     7    1
    19     6     8   ar
    20     8    10    1
    21    10    11   ar
    22    11    12   ar
    23    12    13   ar
    24    13    14   ar
    25    14    15   ar
    26    15    16   ar
    27    16    17   ar
    28    17    18   ar
    29     8     9   ar
    30    24    19   ar
    31     9     3   ar
    32    18    10   ar
    33    18    13   ar
    34    29    30    1
    35    32    33    1
    36     1     2    1
@<TRIPOS>MOLECULE
*****
 33 36 0 0 0
SMALL
GASTEIGER

@<TRIPOS>ATOM
      1 N         142.9182  139.2802  164.5505 N.pl3   1  UNL1       -0.2802
      2 H         143.7710  138.9767  164.1633 H       1  UNL1        0.1552
      3 C         141.6417  139.1058  163.7824 C.ar    1  UNL1        0.2208
      4 N         140.8899  137.8102  163.8614 N.ar    1  UNL1       -0.2111
      5 C         139.6133  137.6357  163.0933 C.ar    1  UNL1        0.1147
      6 C         139.0886  138.7569  162.2462 C.ar    1  UNL1        0.0960
      7 CL        137.8120  138.5825  161.4781 Cl      1  UNL1       -0.0790
      8 C         139.8404  140.0526  162.1672 C.ar    1  UNL1        0.1138
      9 N         141.1169  140.2269  162.9352 N.ar    1  UNL1       -0.2111
     10 C         139.3156  141.1737  161.3200 C.ar    1  UNL1        0.1031
     11 C         138.3218  142.2122  161.7489 C.ar    1  UNL1        0.1196
     12 N         138.0845  143.1335  160.5892 N.ar    1  UNL1       -0.2248
     13 C         138.9317  142.6644  159.4436 C.ar    1  UNL1        0.1479
     14 C         139.1086  143.1837  158.0475 C.ar    1  UNL1        0.0374
     15 C         140.0463  142.4918  157.1032 C.ar    1  UNL1        0.0046
     16 C         140.8072  141.2806  157.5549 C.ar    1  UNL1        0.0191
     17 C         140.6303  140.7613  158.9510 C.ar    1  UNL1        0.0815
     18 N         139.6926  141.4532  159.8953 N.ar    1  UNL1       -0.2874
     19 C         143.0616  141.4017  166.0434 C.ar    1  UNL1        0.1517
     20 C         143.0389  142.0385  167.4014 C.ar    1  UNL1        0.0341
     21 C         142.8500  141.1906  168.6243 C.ar    1  UNL1       -0.0145
     22 C         142.6840  139.7060  168.4892 C.ar    1  UNL1       -0.0026
     23 C         142.7067  139.0692  167.1313 C.ar    1  UNL1        0.0174
     24 C         142.8955  139.9170  165.9083 C.ar    1  UNL1        0.0849
     25 C         144.2358  143.3803  164.8367 C.3     1  UNL1        0.2525
     26 O         143.2504  142.2496  164.8205 O.3     1  UNL1       -0.4702
     27 C         142.8273  141.8274  169.9822 C.3     1  UNL1        0.0810
     28 C         143.7913  142.9289  170.3101 C.3     1  UNL1        0.1439
     29 O         143.3908  144.0177  171.2611 O.3     1  UNL1       -0.3816
     30 H         142.6735  144.5407  170.8702 H       1  UNL1        0.2105
     31 C         141.8407  141.3628  171.0121 C.3     1  UNL1        0.1439
     32 O         141.0853  142.3655  171.8330 O.3     1  UNL1       -0.3816
     33 H         141.7035  142.8462  172.4056 H       1  UNL1        0.2105
@<TRIPOS>BOND
     1    25    26    1
     2    26    19    1
     3    19    20   ar
     4    20    21   ar
     5    21    27    1
     6    27    28    1
     7    28    29    1
     8    27    31    1
     9    31    32    1
    10    21    22   ar
    11    22    23   ar
    12    23    24   ar
    13    24     1    1
    14     1     3    1
    15     3     4   ar
    16     4     5   ar
    17     5     6   ar
    18     6     7    1
    19     6     8   ar
    20     8    10    1
    21    10    11   ar
    22    11    12   ar
    23    12    13   ar
    24    13    14   ar
    25    14    15   ar
    26    15    16   ar
    27    16    17   ar
    28    17    18   ar
    29     8     9   ar
    30    24    19   ar
    31     9     3   ar
    32    18    10   ar
    33    18    13   ar
    34    29    30    1
    35    32    33    1
    36     1     2    1
@<TRIPOS>MOLECULE
*****
 33 36 0 0 0
SMALL
GASTEIGER

@<TRIPOS>ATOM
      1 N         140.8818  142.3757  164.0322 N.pl3   1  UNL1       -0.2802
      2 H         141.2220  143.1072  163.4678 H       1  UNL1        0.1552
      3 C         140.0464  141.2873  163.4261 C.ar    1  UNL1        0.2208
      4 N         139.2714  140.3561  164.3106 N.ar    1  UNL1       -0.2111
      5 C         138.4360  139.2677  163.7045 C.ar    1  UNL1        0.1147
      6 C         138.3755  139.1104  162.2140 C.ar    1  UNL1        0.0960
      7 CL        137.5400  138.0220  161.6079 Cl      1  UNL1       -0.0790
      8 C         139.1505  140.0417  161.3295 C.ar    1  UNL1        0.1138
      9 N         139.9859  141.1301  161.9356 N.ar    1  UNL1       -0.2111
     10 C         139.0900  139.8845  159.8390 C.ar    1  UNL1        0.1031
     11 C         137.9911  140.3766  158.9444 C.ar    1  UNL1        0.1196
     12 N         138.3398  140.0038  157.5339 N.ar    1  UNL1       -0.2248
     13 C         139.6541  139.2812  157.5568 C.ar    1  UNL1        0.1479
     14 C         140.4885  138.6809  156.4644 C.ar    1  UNL1        0.0374
     15 C         141.7867  138.0068  156.7967 C.ar    1  UNL1        0.0046
     16 C         142.2503  137.9331  158.2214 C.ar    1  UNL1        0.0191
     17 C         141.4159  138.5334  159.3137 C.ar    1  UNL1        0.0815
     18 N         140.1177  139.2075  158.9814 N.ar    1  UNL1       -0.2874
     19 C         142.4653  141.7060  165.9800 C.ar    1  UNL1        0.1517
     20 C         142.7825  141.6800  167.4460 C.ar    1  UNL1        0.0341
     21 C         141.8335  142.2977  168.4297 C.ar    1  UNL1       -0.0145
     22 C         140.5672  142.9413  167.9477 C.ar    1  UNL1       -0.0026
     23 C         140.2501  142.9673  166.4818 C.ar    1  UNL1        0.0174
     24 C         141.1991  142.3497  165.4980 C.ar    1  UNL1        0.0849
     25 C         144.4785  141.9270  164.3527 C.3     1  UNL1        0.2525
     26 O         143.4143  141.0884  164.9962 O.3     1  UNL1       -0.4702
     27 C         142.1507  142.2717  169.8955 C.3     1  UNL1        0.0810
     28 C         143.4101  142.9101  170.4017 C.3     1  UNL1        0.1439
     29 O         143.3345  144.0604  171.3617 O.3     1  UNL1       -0.3816
     30 H         142.9315  144.8242  170.9200 H       1  UNL1        0.2105
     31 C         141.2086  141.6072  170.8552 C.3     1  UNL1        0.1439
     32 O         140.8191  142.3020  172.1262 O.3     1  UNL1       -0.3816
     33 H         141.5976  142.3905  172.6980 H       1  UNL1        0.2105
@<TRIPOS>BOND
     1    25    26    1
     2    26    19    1
     3    19    20   ar
     4    20    21   ar
     5    21    27    1
     6    27    28    1
     7    28    29    1
     8    27    31    1
     9    31    32    1
    10    21    22   ar
    11    22    23   ar
    12    23    24   ar
    13    24     1    1
    14     1     3    1
    15     3     4   ar
    16     4     5   ar
    17     5     6   ar
    18     6     7    1
    19     6     8   ar
    20     8    10    1
    21    10    11   ar
    22    11    12   ar
    23    12    13   ar
    24    13    14   ar
    25    14    15   ar
    26    15    16   ar
    27    16    17   ar
    28    17    18   ar
    29     8     9   ar
    30    24    19   ar
    31     9     3   ar
    32    18    10   ar
    33    18    13   ar
    34    29    30    1
    35    32    33    1
    36     1     2    1
@<TRIPOS>MOLECULE
*****
 33 36 0 0 0
SMALL
GASTEIGER

@<TRIPOS>ATOM
      1 N         138.8973  138.8359  164.8781 N.pl3   1  UNL1       -0.2802
      2 H         138.2230  138.1296  165.0031 H       1  UNL1        0.1552
      3 C         139.0364  139.5127  163.5467 C.ar    1  UNL1        0.2208
      4 N         138.3224  138.9629  162.3476 N.ar    1  UNL1       -0.2111
      5 C         138.4615  139.6396  161.0162 C.ar    1  UNL1        0.1147
      6 C         139.3146  140.8663  160.8839 C.ar    1  UNL1        0.0960
      7 CL        139.4537  141.5431  159.5526 Cl      1  UNL1       -0.0790
      8 C         140.0287  141.4162  162.0831 C.ar    1  UNL1        0.1138
      9 N         139.8895  140.7394  163.4144 N.ar    1  UNL1       -0.2111
     10 C         140.8818  142.6429  161.9508 C.ar    1  UNL1        0.1031
     11 C         140.8333  143.6333  160.8254 C.ar    1  UNL1        0.1196
     12 N         141.8547  144.6970  161.0998 N.ar    1  UNL1       -0.2248
     13 C         142.5345  144.3639  162.3948 C.ar    1  UNL1        0.1479
     14 C         143.6233  145.0526  163.1630 C.ar    1  UNL1        0.0374
     15 C         144.1108  144.4717  164.4571 C.ar    1  UNL1        0.0046
     16 C         143.5094  143.2022  164.9831 C.ar    1  UNL1        0.0191
     17 C         142.4206  142.5135  164.2149 C.ar    1  UNL1        0.0815
     18 N         141.9332  143.0944  162.9207 N.ar    1  UNL1       -0.2874
     19 C         141.2691  139.0388  165.9187 C.ar    1  UNL1        0.1517
     20 C         142.1573  139.4382  167.0597 C.ar    1  UNL1        0.0341
     21 C         141.5618  140.0341  168.3008 C.ar    1  UNL1       -0.0145
     22 C         140.0781  140.2305  168.4010 C.ar    1  UNL1       -0.0026
     23 C         139.1900  139.8311  167.2601 C.ar    1  UNL1        0.0174
     24 C         139.7855  139.2353  166.0189 C.ar    1  UNL1        0.0849
     25 C         143.2503  138.8281  164.2512 C.3     1  UNL1        0.2525
     26 O         141.8647  138.4430  164.6777 O.3     1  UNL1       -0.4702
     27 C         142.4500  140.4334  169.4417 C.3     1  UNL1        0.0810
     28 C         143.0821  141.7936  169.4594 C.3     1  UNL1        0.1439
     29 O         144.3321  142.0295  170.2544 O.3     1  UNL1       -0.3816
     30 H         144.1381  141.9283  171.1995 H       1  UNL1        0.2105
     31 C         142.7061  139.4727  170.5647 C.3     1  UNL1        0.1439
     32 O         143.9570  139.5926  171.3838 O.3     1  UNL1       -0.3816
     33 H         144.7277  139.4007  170.8270 H       1  UNL1        0.2105
@<TRIPOS>BOND
     1    25    26    1
     2    26    19    1
     3    19    20   ar
     4    20    21   ar
     5    21    27    1
     6    27    28    1
     7    28    29    1
     8    27    31    1
     9    31    32    1
    10    21    22   ar
    11    22    23   ar
    12    23    24   ar
    13    24     1    1
    14     1     3    1
    15     3     4   ar
    16     4     5   ar
    17     5     6   ar
    18     6     7    1
    19     6     8   ar
    20     8    10    1
    21    10    11   ar
    22    11    12   ar
    23    12    13   ar
    24    13    14   ar
    25    14    15   ar
    26    15    16   ar
    27    16    17   ar
    28    17    18   ar
    29     8     9   ar
    30    24    19   ar
    31     9     3   ar
    32    18    10   ar
    33    18    13   ar
    34    29    30    1
    35    32    33    1
    36     1     2    1
@<TRIPOS>MOLECULE
*****
 33 36 0 0 0
SMALL
GASTEIGER

@<TRIPOS>ATOM
      1 N         138.8256  141.8982  164.6480 N.pl3   1  UNL1       -0.2802
      2 H         138.2789  142.7115  164.5537 H       1  UNL1        0.1552
      3 C         138.9933  140.9680  163.4833 C.ar    1  UNL1        0.2208
      4 N         137.8382  140.1307  163.0199 N.ar    1  UNL1       -0.2111
      5 C         138.0059  139.2004  161.8552 C.ar    1  UNL1        0.1147
      6 C         139.3286  139.1075  161.1539 C.ar    1  UNL1        0.0960
      7 CL        139.4963  138.1773  159.9892 Cl      1  UNL1       -0.0790
      8 C         140.4837  139.9449  161.6173 C.ar    1  UNL1        0.1138
      9 N         140.3160  140.8751  162.7820 N.ar    1  UNL1       -0.2111
     10 C         141.8064  139.8520  160.9160 C.ar    1  UNL1        0.1031
     11 C         142.8988  138.8702  161.2205 C.ar    1  UNL1        0.1196
     12 N         144.0364  139.1361  160.2797 N.ar    1  UNL1       -0.2248
     13 C         143.6472  140.2822  159.3938 C.ar    1  UNL1        0.1479
     14 C         144.3696  140.9801  158.2799 C.ar    1  UNL1        0.0374
     15 C         143.7139  142.1204  157.5591 C.ar    1  UNL1        0.0046
     16 C         142.3356  142.5629  157.9524 C.ar    1  UNL1        0.0191
     17 C         141.6132  141.8651  159.0664 C.ar    1  UNL1        0.0815
     18 N         142.2689  140.7247  159.7871 N.ar    1  UNL1       -0.2874
     19 C         139.1131  140.3525  166.7164 C.ar    1  UNL1        0.1517
     20 C         139.7785  140.0437  168.0249 C.ar    1  UNL1        0.0341
     21 C         140.8215  140.9717  168.5734 C.ar    1  UNL1       -0.0145
     22 C         141.1993  142.2086  167.8134 C.ar    1  UNL1       -0.0026
     23 C         140.5340  142.5173  166.5050 C.ar    1  UNL1        0.0174
     24 C         139.4909  141.5893  165.9564 C.ar    1  UNL1        0.0849
     25 C         138.4264  138.0044  165.8421 C.3     1  UNL1        0.2525
     26 O         138.0701  139.4245  166.1680 O.3     1  UNL1       -0.4702
     27 C         141.4868  140.6629  169.8818 C.3     1  UNL1        0.0810
     28 C         141.1049  141.4255  171.1157 C.3     1  UNL1        0.1439
     29 O         142.1608  142.1145  171.9285 O.3     1  UNL1       -0.3816
     30 H         142.7491  141.4518  172.3228 H       1  UNL1        0.2105
     31 C         142.5340  139.5915  169.9563 C.3     1  UNL1        0.1439
     32 O         143.5321  139.5949  171.0760 O.3     1  UNL1       -0.3816
     33 H         144.1033  140.3750  170.9976 H       1  UNL1        0.2105
@<TRIPOS>BOND
     1    25    26    1
     2    26    19    1
     3    19    20   ar
     4    20    21   ar
     5    21    27    1
     6    27    28    1
     7    28    29    1
     8    27    31    1
     9    31    32    1
    10    21    22   ar
    11    22    23   ar
    12    23    24   ar
    13    24     1    1
    14     1     3    1
    15     3     4   ar
    16     4     5   ar
    17     5     6   ar
    18     6     7    1
    19     6     8   ar
    20     8    10    1
    21    10    11   ar
    22    11    12   ar
    23    12    13   ar
    24    13    14   ar
    25    14    15   ar
    26    15    16   ar
    27    16    17   ar
    28    17    18   ar
    29     8     9   ar
    30    24    19   ar
    31     9     3   ar
    32    18    10   ar
    33    18    13   ar
    34    29    30    1
    35    32    33    1
    36     1     2    1
