@<TRIPOS>MOLECULE
*****
 19 21 0 0 0
SMALL
GASTEIGER

@<TRIPOS>ATOM
      1 C         137.7217  137.8862  166.6048 C.3     1  UNL1        0.1538
      2 N         138.5553  139.1285  166.7140 N.ar    1  UNL1       -0.2474
      3 C         138.7241  140.1732  165.6510 C.ar    1  UNL1        0.0966
      4 C         139.6395  141.2346  166.1853 C.ar    1  UNL1        0.0382
      5 C         140.0365  140.8458  167.5786 C.ar    1  UNL1        0.1023
      6 N         139.3664  139.5442  167.9053 N.ar    1  UNL1       -0.1692
      7 C         140.9442  141.6222  168.4859 C.ar    1  UNL1        0.0195
      8 C         140.4235  142.8226  169.2195 C.ar    1  UNL1        0.0039
      9 C         141.3312  143.5991  170.1267 C.ar    1  UNL1        0.0297
     10 C         142.7596  143.1753  170.3005 C.ar    1  UNL1        0.1401
     11 F         143.6673  143.9517  171.2077 F       1  UNL1       -0.2042
     12 C         143.2803  141.9750  169.5669 C.ar    1  UNL1        0.0297
     13 C         142.3725  141.1985  168.6596 C.ar    1  UNL1        0.0039
     14 C         140.0805  142.4682  165.4546 C.ar    1  UNL1        0.0061
     15 C         141.5128  142.6199  165.0356 C.ar    1  UNL1        0.0208
     16 C         141.9537  143.8535  164.3049 C.ar    1  UNL1        0.0989
     17 N         140.9624  144.9352  163.9933 N.ar    1  UNL1       -0.2423
     18 C         139.5302  144.7835  164.4124 C.ar    1  UNL1        0.0989
     19 C         139.0892  143.5500  165.1430 C.ar    1  UNL1        0.0208
@<TRIPOS>BOND
     1     1     2    1
     2     2     3   ar
     3     3     4   ar
     4     4    14    1
     5    14    15   ar
     6    15    16   ar
     7    16    17   ar
     8    17    18   ar
     9    18    19   ar
    10     4     5   ar
    11     5     7    1
    12     7     8   ar
    13     8     9   ar
    14     9    10   ar
    15    10    11    1
    16    10    12   ar
    17    12    13   ar
    18     5     6   ar
    19     6     2   ar
    20    19    14   ar
    21    13     7   ar
@<TRIPOS>MOLECULE
*****
 19 21 0 0 0
SMALL
GASTEIGER

@<TRIPOS>ATOM
      1 C         138.1717  138.4939  166.1029 C.3     1  UNL1        0.1538
      2 N         139.1263  139.6260  166.3417 N.ar    1  UNL1       -0.2474
      3 C         139.5923  140.1192  167.6795 C.ar    1  UNL1        0.0966
      4 C         140.5365  141.2618  167.4492 C.ar    1  UNL1        0.0382
      5 C         140.6541  141.4748  165.9691 C.ar    1  UNL1        0.1023
      6 N         139.7826  140.4639  165.2846 N.ar    1  UNL1       -0.1692
      7 C         141.4955  142.5159  165.2922 C.ar    1  UNL1        0.0195
      8 C         142.9864  142.3584  165.2414 C.ar    1  UNL1        0.0039
      9 C         143.8278  143.3995  164.5646 C.ar    1  UNL1        0.0297
     10 C         143.1784  144.5980  163.9385 C.ar    1  UNL1        0.1401
     11 F         144.0198  145.6391  163.2616 F       1  UNL1       -0.2042
     12 C         141.6876  144.7554  163.9893 C.ar    1  UNL1        0.0297
     13 C         140.8462  143.7143  164.6661 C.ar    1  UNL1        0.0039
     14 C         141.2396  142.0525  168.5124 C.ar    1  UNL1        0.0061
     15 C         142.6576  141.7254  168.8760 C.ar    1  UNL1        0.0208
     16 C         143.3607  142.5161  169.9392 C.ar    1  UNL1        0.0989
     17 N         142.6458  143.6340  170.6388 N.ar    1  UNL1       -0.2423
     18 C         141.2278  143.9611  170.2751 C.ar    1  UNL1        0.0989
     19 C         140.5247  143.1703  169.2120 C.ar    1  UNL1        0.0208
@<TRIPOS>BOND
     1     1     2    1
     2     2     3   ar
     3     3     4   ar
     4     4    14    1
     5    14    15   ar
     6    15    16   ar
     7    16    17   ar
     8    17    18   ar
     9    18    19   ar
    10     4     5   ar
    11     5     7    1
    12     7     8   ar
    13     8     9   ar
    14     9    10   ar
    15    10    11    1
    16    10    12   ar
    17    12    13   ar
    18     5     6   ar
    19     6     2   ar
    20    19    14   ar
    21    13     7   ar
@<TRIPOS>MOLECULE
*****
 19 21 0 0 0
SMALL
GASTEIGER

@<TRIPOS>ATOM
      1 C         140.2834  140.1731  170.9105 C.3     1  UNL1        0.1538
      2 N         140.5387  140.0908  169.4347 N.ar    1  UNL1       -0.2474
      3 C         141.8555  140.3191  168.7536 C.ar    1  UNL1        0.0966
      4 C         141.6526  140.1351  167.2788 C.ar    1  UNL1        0.0382
      5 C         140.2104  139.7931  167.0484 C.ar    1  UNL1        0.1023
      6 N         139.5219  139.7657  168.3808 N.ar    1  UNL1       -0.1692
      7 C         139.5692  139.5255  165.7190 C.ar    1  UNL1        0.0195
      8 C         139.7409  138.1895  165.0590 C.ar    1  UNL1        0.0039
      9 C         139.0997  137.9219  163.7296 C.ar    1  UNL1        0.0297
     10 C         138.2869  138.9902  163.0602 C.ar    1  UNL1        0.1401
     11 F         137.6457  138.7226  161.7309 F       1  UNL1       -0.2042
     12 C         138.1152  140.3261  163.7203 C.ar    1  UNL1        0.0297
     13 C         138.7564  140.5937  165.0497 C.ar    1  UNL1        0.0039
     14 C         142.7069  140.2696  166.2203 C.ar    1  UNL1        0.0061
     15 C         143.1253  141.6300  165.7469 C.ar    1  UNL1        0.0208
     16 C         144.1795  141.7644  164.6884 C.ar    1  UNL1        0.0989
     17 N         144.8154  140.5383  164.1033 N.ar    1  UNL1       -0.2423
     18 C         144.3971  139.1779  164.5766 C.ar    1  UNL1        0.0989
     19 C         143.3428  139.0435  165.6351 C.ar    1  UNL1        0.0208
@<TRIPOS>BOND
     1     1     2    1
     2     2     3   ar
     3     3     4   ar
     4     4    14    1
     5    14    15   ar
     6    15    16   ar
     7    16    17   ar
     8    17    18   ar
     9    18    19   ar
    10     4     5   ar
    11     5     7    1
    12     7     8   ar
    13     8     9   ar
    14     9    10   ar
    15    10    11    1
    16    10    12   ar
    17    12    13   ar
    18     5     6   ar
    19     6     2   ar
    20    19    14   ar
    21    13     7   ar
@<TRIPOS>MOLECULE
*****
 19 21 0 0 0
SMALL
GASTEIGER

@<TRIPOS>ATOM
      1 C         140.0011  140.1576  170.9027 C.3     1  UNL1        0.1538
      2 N         140.2984  140.1231  169.4329 N.ar    1  UNL1       -0.2474
      3 C         139.3154  139.8197  168.3414 C.ar    1  UNL1        0.0966
      4 C         140.0404  139.8950  167.0304 C.ar    1  UNL1        0.0382
      5 C         141.4717  140.2450  167.3117 C.ar    1  UNL1        0.1023
      6 N         141.6311  140.3859  168.7965 N.ar    1  UNL1       -0.1692
      7 C         142.5535  140.4227  166.2880 C.ar    1  UNL1        0.0195
      8 C         143.2129  139.2216  165.6775 C.ar    1  UNL1        0.0039
      9 C         144.2948  139.3994  164.6538 C.ar    1  UNL1        0.0297
     10 C         144.7172  140.7781  164.2405 C.ar    1  UNL1        0.1401
     11 F         145.7991  140.9559  163.2168 F       1  UNL1       -0.2042
     12 C         144.0578  141.9791  164.8511 C.ar    1  UNL1        0.0297
     13 C         142.9759  141.8013  165.8748 C.ar    1  UNL1        0.0039
     14 C         139.4397  139.6614  165.6759 C.ar    1  UNL1        0.0061
     15 C         139.6319  138.3426  164.9876 C.ar    1  UNL1        0.0208
     16 C         139.0311  138.1090  163.6331 C.ar    1  UNL1        0.0989
     17 N         138.2383  139.1942  162.9670 N.ar    1  UNL1       -0.2423
     18 C         138.0462  140.5130  163.6553 C.ar    1  UNL1        0.0989
     19 C         138.6469  140.7466  165.0098 C.ar    1  UNL1        0.0208
@<TRIPOS>BOND
     1     1     2    1
     2     2     3   ar
     3     3     4   ar
     4     4    14    1
     5    14    15   ar
     6    15    16   ar
     7    16    17   ar
     8    17    18   ar
     9    18    19   ar
    10     4     5   ar
    11     5     7    1
    12     7     8   ar
    13     8     9   ar
    14     9    10   ar
    15    10    11    1
    16    10    12   ar
    17    12    13   ar
    18     5     6   ar
    19     6     2   ar
    20    19    14   ar
    21    13     7   ar
@<TRIPOS>MOLECULE
*****
 19 21 0 0 0
SMALL
GASTEIGER

@<TRIPOS>ATOM
      1 C         145.3437  141.1573  163.9619 C.3     1  UNL1        0.1538
      2 N         143.8588  141.1802  164.1730 N.ar    1  UNL1       -0.2474
      3 C         142.9251  142.2758  163.7514 C.ar    1  UNL1        0.0966
      4 C         141.5361  141.8842  164.1606 C.ar    1  UNL1        0.0382
      5 C         141.6114  140.5465  164.8351 C.ar    1  UNL1        0.1023
      6 N         143.0469  140.1114  164.8428 N.ar    1  UNL1       -0.1692
      7 C         140.4544  139.7787  165.4023 C.ar    1  UNL1        0.0195
      8 C         139.8945  138.6050  164.6546 C.ar    1  UNL1        0.0039
      9 C         138.7374  137.8372  165.2219 C.ar    1  UNL1        0.0297
     10 C         138.1403  138.2430  166.5367 C.ar    1  UNL1        0.1401
     11 F         136.9832  137.4753  167.1039 F       1  UNL1       -0.2042
     12 C         138.7002  139.4167  167.2843 C.ar    1  UNL1        0.0297
     13 C         139.8572  140.1845  166.7170 C.ar    1  UNL1        0.0039
     14 C         140.2906  142.6890  163.9348 C.ar    1  UNL1        0.0061
     15 C         139.3576  142.3294  162.8167 C.ar    1  UNL1        0.0208
     16 C         138.1121  143.1342  162.5911 C.ar    1  UNL1        0.0989
     17 N         137.7996  144.2986  163.4835 N.ar    1  UNL1       -0.2423
     18 C         138.7325  144.6582  164.6016 C.ar    1  UNL1        0.0989
     19 C         139.9780  143.8534  164.8273 C.ar    1  UNL1        0.0208
@<TRIPOS>BOND
     1     1     2    1
     2     2     3   ar
     3     3     4   ar
     4     4    14    1
     5    14    15   ar
     6    15    16   ar
     7    16    17   ar
     8    17    18   ar
     9    18    19   ar
    10     4     5   ar
    11     5     7    1
    12     7     8   ar
    13     8     9   ar
    14     9    10   ar
    15    10    11    1
    16    10    12   ar
    17    12    13   ar
    18     5     6   ar
    19     6     2   ar
    20    19    14   ar
    21    13     7   ar
@<TRIPOS>MOLECULE
*****
 19 21 0 0 0
SMALL
GASTEIGER

@<TRIPOS>ATOM
      1 C         140.7233  141.7792  171.0390 C.3     1  UNL1        0.1538
      2 N         140.5476  141.7260  169.5503 N.ar    1  UNL1       -0.2474
      3 C         140.6902  142.8809  168.6038 C.ar    1  UNL1        0.0966
      4 C         140.4293  142.3772  167.2152 C.ar    1  UNL1        0.0382
      5 C         140.1253  140.9110  167.3035 C.ar    1  UNL1        0.1023
      6 N         140.1985  140.5085  168.7466 N.ar    1  UNL1       -0.1692
      7 C         139.8046  140.0060  166.1510 C.ar    1  UNL1        0.0195
      8 C         140.7766  138.9392  165.7420 C.ar    1  UNL1        0.0039
      9 C         140.4559  138.0343  164.5896 C.ar    1  UNL1        0.0297
     10 C         139.1632  138.1961  163.8460 C.ar    1  UNL1        0.1401
     11 F         138.8424  137.2912  162.6935 F       1  UNL1       -0.2042
     12 C         138.1912  139.2629  164.2550 C.ar    1  UNL1        0.0297
     13 C         138.5120  140.1678  165.4075 C.ar    1  UNL1        0.0039
     14 C         140.4658  143.1960  165.9588 C.ar    1  UNL1        0.0061
     15 C         141.6987  143.2042  165.1046 C.ar    1  UNL1        0.0208
     16 C         141.7352  144.0230  163.8483 C.ar    1  UNL1        0.0989
     17 N         140.5388  144.8335  163.4463 N.ar    1  UNL1       -0.2423
     18 C         139.3059  144.8253  164.3006 C.ar    1  UNL1        0.0989
     19 C         139.2694  144.0065  165.5569 C.ar    1  UNL1        0.0208
@<TRIPOS>BOND
     1     1     2    1
     2     2     3   ar
     3     3     4   ar
     4     4    14    1
     5    14    15   ar
     6    15    16   ar
     7    16    17   ar
     8    17    18   ar
     9    18    19   ar
    10     4     5   ar
    11     5     7    1
    12     7     8   ar
    13     8     9   ar
    14     9    10   ar
    15    10    11    1
    16    10    12   ar
    17    12    13   ar
    18     5     6   ar
    19     6     2   ar
    20    19    14   ar
    21    13     7   ar
@<TRIPOS>MOLECULE
*****
 19 21 0 0 0
SMALL
GASTEIGER

@<TRIPOS>ATOM
      1 C         140.4509  141.8568  171.0049 C.3     1  UNL1        0.1538
      2 N         140.3756  141.7793  169.5088 N.ar    1  UNL1       -0.2474
      3 C         140.1471  140.5365  168.7007 C.ar    1  UNL1        0.0966
      4 C         140.1459  140.9202  167.2506 C.ar    1  UNL1        0.0382
      5 C         140.3737  142.4001  167.1625 C.ar    1  UNL1        0.1023
      6 N         140.5157  142.9312  168.5581 N.ar    1  UNL1       -0.1692
      7 C         140.4467  143.2074  165.9003 C.ar    1  UNL1        0.0195
      8 C         139.2624  144.0140  165.4565 C.ar    1  UNL1        0.0039
      9 C         139.3354  144.8213  164.1944 C.ar    1  UNL1        0.0297
     10 C         140.5926  144.8220  163.3760 C.ar    1  UNL1        0.1401
     11 F         140.6656  145.6292  162.1139 F       1  UNL1       -0.2042
     12 C         141.7767  144.0153  163.8199 C.ar    1  UNL1        0.0297
     13 C         141.7038  143.2081  165.0820 C.ar    1  UNL1        0.0039
     14 C         139.9511  139.9875  166.0920 C.ar    1  UNL1        0.0061
     15 C         138.6485  139.9771  165.3483 C.ar    1  UNL1        0.0208
     16 C         138.4537  139.0445  164.1898 C.ar    1  UNL1        0.0989
     17 N         139.5616  138.1223  163.7749 N.ar    1  UNL1       -0.2423
     18 C         140.8642  138.1327  164.5185 C.ar    1  UNL1        0.0989
     19 C         141.0589  139.0653  165.6771 C.ar    1  UNL1        0.0208
@<TRIPOS>BOND
     1     1     2    1
     2     2     3   ar
     3     3     4   ar
     4     4    14    1
     5    14    15   ar
     6    15    16   ar
     7    16    17   ar
     8    17    18   ar
     9    18    19   ar
    10     4     5   ar
    11     5     7    1
    12     7     8   ar
    13     8     9   ar
    14     9    10   ar
    15    10    11    1
    16    10    12   ar
    17    12    13   ar
    18     5     6   ar
    19     6     2   ar
    20    19    14   ar
    21    13     7   ar
@<TRIPOS>MOLECULE
*****
 19 21 0 0 0
SMALL
GASTEIGER

@<TRIPOS>ATOM
      1 C         141.8340  142.1240  171.1031 C.3     1  UNL1        0.1538
      2 N         141.7692  142.1556  169.6049 N.ar    1  UNL1       -0.2474
      3 C         142.9105  141.8941  168.6673 C.ar    1  UNL1        0.0966
      4 C         142.3984  142.0311  167.2641 C.ar    1  UNL1        0.0382
      5 C         140.9406  142.3773  167.3344 C.ar    1  UNL1        0.1023
      6 N         140.5517  142.4543  168.7811 N.ar    1  UNL1       -0.1692
      7 C         140.0313  142.6064  166.1637 C.ar    1  UNL1        0.0195
      8 C         139.6826  144.0047  165.7472 C.ar    1  UNL1        0.0039
      9 C         138.7733  144.2338  164.5765 C.ar    1  UNL1        0.0297
     10 C         138.2126  143.0647  163.8222 C.ar    1  UNL1        0.1401
     11 F         137.3032  143.2938  162.6515 F       1  UNL1       -0.2042
     12 C         138.5612  141.6665  164.2387 C.ar    1  UNL1        0.0297
     13 C         139.4706  141.4374  165.4094 C.ar    1  UNL1        0.0039
     14 C         143.2029  141.8532  166.0106 C.ar    1  UNL1        0.0061
     15 C         143.9757  143.0077  165.4452 C.ar    1  UNL1        0.0208
     16 C         144.7801  142.8297  164.1917 C.ar    1  UNL1        0.0989
     17 N         144.8117  141.4972  163.5037 N.ar    1  UNL1       -0.2423
     18 C         144.0389  140.3426  164.0691 C.ar    1  UNL1        0.0989
     19 C         143.2344  140.5206  165.3225 C.ar    1  UNL1        0.0208
@<TRIPOS>BOND
     1     1     2    1
     2     2     3   ar
     3     3     4   ar
     4     4    14    1
     5    14    15   ar
     6    15    16   ar
     7    16    17   ar
     8    17    18   ar
     9    18    19   ar
    10     4     5   ar
    11     5     7    1
    12     7     8   ar
    13     8     9   ar
    14     9    10   ar
    15    10    11    1
    16    10    12   ar
    17    12    13   ar
    18     5     6   ar
    19     6     2   ar
    20    19    14   ar
    21    13     7   ar
@<TRIPOS>MOLECULE
*****
 19 21 0 0 0
SMALL
GASTEIGER

@<TRIPOS>ATOM
      1 C         141.3668  139.5011  170.1911 C.3     1  UNL1        0.1538
      2 N         141.3624  140.2180  168.8736 N.ar    1  UNL1       -0.2474
      3 C         142.5405  140.3949  167.9621 C.ar    1  UNL1        0.0966
      4 C         142.0854  141.1701  166.7614 C.ar    1  UNL1        0.0382
      5 C         140.6259  141.4724  166.9307 C.ar    1  UNL1        0.1023
      6 N         140.1791  140.8840  168.2361 N.ar    1  UNL1       -0.1692
      7 C         139.7645  142.2301  165.9643 C.ar    1  UNL1        0.0195
      8 C         138.7862  141.4955  165.0964 C.ar    1  UNL1        0.0039
      9 C         137.9248  142.2531  164.1300 C.ar    1  UNL1        0.0297
     10 C         138.0417  143.7454  164.0314 C.ar    1  UNL1        0.1401
     11 F         137.1803  144.5030  163.0651 F       1  UNL1       -0.2042
     12 C         139.0200  144.4799  164.8994 C.ar    1  UNL1        0.0297
     13 C         139.8814  143.7222  165.8657 C.ar    1  UNL1        0.0039
     14 C         142.9397  141.5725  165.5959 C.ar    1  UNL1        0.0061
     15 C         143.0223  140.6893  164.3863 C.ar    1  UNL1        0.0208
     16 C         143.8766  141.0917  163.2209 C.ar    1  UNL1        0.0989
     17 N         144.6483  142.3772  163.2651 N.ar    1  UNL1       -0.2423
     18 C         144.5658  143.2603  164.4747 C.ar    1  UNL1        0.0989
     19 C         143.7114  142.8579  165.6401 C.ar    1  UNL1        0.0208
@<TRIPOS>BOND
     1     1     2    1
     2     2     3   ar
     3     3     4   ar
     4     4    14    1
     5    14    15   ar
     6    15    16   ar
     7    16    17   ar
     8    17    18   ar
     9    18    19   ar
    10     4     5   ar
    11     5     7    1
    12     7     8   ar
    13     8     9   ar
    14     9    10   ar
    15    10    11    1
    16    10    12   ar
    17    12    13   ar
    18     5     6   ar
    19     6     2   ar
    20    19    14   ar
    21    13     7   ar
