@<TRIPOS>MOLECULE
*****
 25 28 0 0 0
SMALL
GASTEIGER

@<TRIPOS>ATOM
      1 C         140.9047  138.4941  162.2614 C.ar    1  UNL1        0.1917
      2 N         139.7141  137.6093  162.0386 N.ar    1  UNL1       -0.1268
      3 N         138.9118  137.5841  163.3056 N.ar    1  UNL1       -0.1316
      4 C         139.6064  138.4534  164.3116 C.ar    1  UNL1        0.1615
      5 N         140.8381  139.0158  163.6662 N.ar    1  UNL1       -0.2940
      6 C         141.7399  139.9303  164.4410 C.3     1  UNL1        0.1302
      7 C         141.4100  140.2824  165.8614 C.3     1  UNL1        0.1186
      8 N         140.1783  139.7200  166.5068 N.am    1  UNL1       -0.2688
      9 C         139.8483  140.0720  167.9270 C.2     1  UNL1        0.2493
     10 O         138.6166  139.5096  168.5724 O.2     1  UNL1       -0.2699
     11 C         139.2765  138.8054  165.7318 C.3     1  UNL1        0.1343
     12 C         138.0447  138.2430  166.3772 C.3     1  UNL1        0.0298
     13 C         140.7501  140.9865  168.7019 C.ar    1  UNL1        0.0536
     14 C         140.3569  142.4171  168.9229 C.ar    1  UNL1        0.0054
     15 C         141.2588  143.3316  169.6978 C.ar    1  UNL1        0.0115
     16 C         142.5538  142.8155  170.2516 C.ar    1  UNL1        0.0577
     17 CL        143.4556  143.7301  171.0265 Cl      1  UNL1       -0.0822
     18 C         142.9469  141.3850  170.0305 C.ar    1  UNL1        0.0115
     19 C         142.0452  140.4705  169.2557 C.ar    1  UNL1        0.0054
     20 C         143.4831  140.5814  158.1534 C.3     1  UNL1        0.0744
     21 C         143.1592  139.7625  159.3677 C.ar    1  UNL1        0.1481
     22 N         144.0802  138.7947  160.0497 N.ar    1  UNL1       -0.1929
     23 S         143.3477  138.2017  161.2168 S.2     1  UNL1        0.0369
     24 C         141.9741  138.8031  161.2559 C.ar    1  UNL1        0.1652
     25 N         141.8576  139.7678  160.1132 N.ar    1  UNL1       -0.2190
@<TRIPOS>BOND
     1    20    21    1
     2    21    22   ar
     3    22    23   ar
     4    23    24   ar
     5    24     1    1
     6     1     2   ar
     7     2     3   ar
     8     3     4   ar
     9     4     5   ar
    10     5     6    1
    11     6     7    1
    12     7     8    1
    13     8     9   am
    14     9    10    2
    15     9    13    1
    16    13    14   ar
    17    14    15   ar
    18    15    16   ar
    19    16    17    1
    20    16    18   ar
    21    18    19   ar
    22     8    11    1
    23    11    12    1
    24    24    25   ar
    25    25    21   ar
    26     5     1   ar
    27    19    13   ar
    28    11     4    1
@<TRIPOS>MOLECULE
*****
 25 28 0 0 0
SMALL
GASTEIGER

@<TRIPOS>ATOM
      1 C         139.1702  141.2627  161.8498 C.ar    1  UNL1        0.1917
      2 N         138.1333  140.2086  161.5974 N.ar    1  UNL1       -0.1268
      3 N         137.8134  139.5503  162.9067 N.ar    1  UNL1       -0.1316
      4 C         138.6525  140.1975  163.9683 C.ar    1  UNL1        0.1615
      5 N         139.4911  141.2558  163.3151 N.ar    1  UNL1       -0.2940
      6 C         140.4385  142.0766  164.1389 C.3     1  UNL1        0.1302
      7 C         140.5474  141.8390  165.6161 C.3     1  UNL1        0.1186
      8 N         139.7087  140.7806  166.2692 N.am    1  UNL1       -0.2688
      9 C         139.8175  140.5430  167.7463 C.2     1  UNL1        0.2493
     10 O         138.9789  139.4847  168.3994 O.2     1  UNL1       -0.2699
     11 C         138.7613  139.9599  165.4453 C.3     1  UNL1        0.1343
     12 C         137.9227  138.9016  166.0985 C.3     1  UNL1        0.0298
     13 C         140.7650  141.3637  168.5701 C.ar    1  UNL1        0.0536
     14 C         142.1692  140.8870  168.7957 C.ar    1  UNL1        0.0054
     15 C         143.1166  141.7078  169.6196 C.ar    1  UNL1        0.0115
     16 C         142.6598  143.0053  170.2178 C.ar    1  UNL1        0.0577
     17 CL        143.6073  143.8261  171.0417 Cl      1  UNL1       -0.0822
     18 C         141.2556  143.4820  169.9922 C.ar    1  UNL1        0.0115
     19 C         140.3082  142.6613  169.1684 C.ar    1  UNL1        0.0054
     20 C         140.2290  145.4963  158.8772 C.3     1  UNL1        0.0744
     21 C         140.2660  144.1112  159.4518 C.ar    1  UNL1        0.1481
     22 N         141.1675  142.9969  159.0092 N.ar    1  UNL1       -0.1929
     23 S         140.8667  141.7942  159.8537 S.2     1  UNL1        0.0369
     24 C         139.7794  142.1652  160.8181 C.ar    1  UNL1        0.1652
     25 N         139.4082  143.5971  160.5698 N.ar    1  UNL1       -0.2190
@<TRIPOS>BOND
     1    20    21    1
     2    21    22   ar
     3    22    23   ar
     4    23    24   ar
     5    24     1    1
     6     1     2   ar
     7     2     3   ar
     8     3     4   ar
     9     4     5   ar
    10     5     6    1
    11     6     7    1
    12     7     8    1
    13     8     9   am
    14     9    10    2
    15     9    13    1
    16    13    14   ar
    17    14    15   ar
    18    15    16   ar
    19    16    17    1
    20    16    18   ar
    21    18    19   ar
    22     8    11    1
    23    11    12    1
    24    24    25   ar
    25    25    21   ar
    26     5     1   ar
    27    19    13   ar
    28    11     4    1
@<TRIPOS>MOLECULE
*****
 25 28 0 0 0
SMALL
GASTEIGER

@<TRIPOS>ATOM
      1 C         142.6780  143.3811  160.5925 C.ar    1  UNL1        0.1917
      2 N         144.1571  143.2721  160.3682 N.ar    1  UNL1       -0.1268
      3 N         144.6913  142.2254  161.3004 N.ar    1  UNL1       -0.1316
      4 C         143.5424  141.6875  162.1008 C.ar    1  UNL1        0.1615
      5 N         142.2980  142.4018  161.6633 N.ar    1  UNL1       -0.2940
      6 C         140.9798  142.0682  162.2964 C.3     1  UNL1        0.1302
      7 C         140.9058  141.0202  163.3671 C.3     1  UNL1        0.1186
      8 N         142.1502  140.3059  163.8046 N.am    1  UNL1       -0.2688
      9 C         142.0763  139.2580  164.8753 C.2     1  UNL1        0.2493
     10 O         143.3206  138.5437  165.3128 O.2     1  UNL1       -0.2699
     11 C         143.4685  140.6396  163.1714 C.3     1  UNL1        0.1343
     12 C         144.7128  139.9253  163.6090 C.3     1  UNL1        0.0298
     13 C         140.7580  138.9244  165.5084 C.ar    1  UNL1        0.0536
     14 C         140.2682  139.7177  166.6834 C.ar    1  UNL1        0.0054
     15 C         138.9499  139.3840  167.3166 C.ar    1  UNL1        0.0115
     16 C         138.1215  138.2571  166.7747 C.ar    1  UNL1        0.0577
     17 CL        136.8032  137.9234  167.4079 Cl      1  UNL1       -0.0822
     18 C         138.6114  137.4637  165.5997 C.ar    1  UNL1        0.0115
     19 C         139.9296  137.7973  164.9666 C.ar    1  UNL1        0.0054
     20 C         140.3106  146.1580  156.7760 C.3     1  UNL1        0.0744
     21 C         140.6547  145.5833  158.1181 C.ar    1  UNL1        0.1481
     22 N         139.9532  145.8799  159.4104 N.ar    1  UNL1       -0.1929
     23 S         140.6257  145.0910  160.4946 S.2     1  UNL1        0.0369
     24 C         141.7429  144.3069  159.8724 C.ar    1  UNL1        0.1652
     25 N         141.7608  144.6111  158.4037 N.ar    1  UNL1       -0.2190
@<TRIPOS>BOND
     1    20    21    1
     2    21    22   ar
     3    22    23   ar
     4    23    24   ar
     5    24     1    1
     6     1     2   ar
     7     2     3   ar
     8     3     4   ar
     9     4     5   ar
    10     5     6    1
    11     6     7    1
    12     7     8    1
    13     8     9   am
    14     9    10    2
    15     9    13    1
    16    13    14   ar
    17    14    15   ar
    18    15    16   ar
    19    16    17    1
    20    16    18   ar
    21    18    19   ar
    22     8    11    1
    23    11    12    1
    24    24    25   ar
    25    25    21   ar
    26     5     1   ar
    27    19    13   ar
    28    11     4    1
@<TRIPOS>MOLECULE
*****
 25 28 0 0 0
SMALL
GASTEIGER

@<TRIPOS>ATOM
      1 C         138.9332  142.0334  161.1095 C.ar    1  UNL1        0.1917
      2 N         138.2851  143.3596  160.8429 N.ar    1  UNL1       -0.1268
      3 N         138.2608  144.1306  162.1293 N.ar    1  UNL1       -0.1316
      4 C         138.8939  143.2809  163.1910 C.ar    1  UNL1        0.1615
      5 N         139.3095  141.9848  162.5608 N.ar    1  UNL1       -0.2940
      6 C         139.9769  140.9277  163.3897 C.3     1  UNL1        0.1302
      7 C         140.2287  141.1668  164.8490 C.3     1  UNL1        0.1186
      8 N         139.8131  142.4629  165.4793 N.am    1  UNL1       -0.2688
      9 C         140.0649  142.7020  166.9385 C.2     1  UNL1        0.2493
     10 O         139.6493  143.9982  167.5688 O.2     1  UNL1       -0.2699
     11 C         139.1457  143.5200  164.6503 C.3     1  UNL1        0.1343
     12 C         138.7301  144.8162  165.2805 C.3     1  UNL1        0.0298
     13 C         140.7322  141.6450  167.7675 C.ar    1  UNL1        0.0536
     14 C         139.9371  140.8690  168.7752 C.ar    1  UNL1        0.0054
     15 C         140.6045  139.8118  169.6042 C.ar    1  UNL1        0.0115
     16 C         142.0671  139.5308  169.4254 C.ar    1  UNL1        0.0577
     17 CL        142.7345  138.4737  170.2543 Cl      1  UNL1       -0.0822
     18 C         142.8622  140.3068  168.4176 C.ar    1  UNL1        0.0115
     19 C         142.1948  141.3638  167.5887 C.ar    1  UNL1        0.0054
     20 C         141.2742  138.3125  158.1846 C.3     1  UNL1        0.0744
     21 C         140.2406  139.2363  158.7574 C.ar    1  UNL1        0.1481
     22 N         138.8004  139.3121  158.3450 N.ar    1  UNL1       -0.1929
     23 S         138.1353  140.3692  159.1760 S.2     1  UNL1        0.0369
     24 C         139.1645  140.9466  160.1019 C.ar    1  UNL1        0.1652
     25 N         140.4656  140.2465  159.8432 N.ar    1  UNL1       -0.2190
@<TRIPOS>BOND
     1    20    21    1
     2    21    22   ar
     3    22    23   ar
     4    23    24   ar
     5    24     1    1
     6     1     2   ar
     7     2     3   ar
     8     3     4   ar
     9     4     5   ar
    10     5     6    1
    11     6     7    1
    12     7     8    1
    13     8     9   am
    14     9    10    2
    15     9    13    1
    16    13    14   ar
    17    14    15   ar
    18    15    16   ar
    19    16    17    1
    20    16    18   ar
    21    18    19   ar
    22     8    11    1
    23    11    12    1
    24    24    25   ar
    25    25    21   ar
    26     5     1   ar
    27    19    13   ar
    28    11     4    1
@<TRIPOS>MOLECULE
*****
 25 28 0 0 0
SMALL
GASTEIGER

@<TRIPOS>ATOM
      1 C         143.2337  140.9197  161.9898 C.ar    1  UNL1        0.1917
      2 N         144.1267  139.7547  161.6810 N.ar    1  UNL1       -0.1268
      3 N         144.3429  138.9869  162.9514 N.ar    1  UNL1       -0.1316
      4 C         143.5834  139.6774  164.0453 C.ar    1  UNL1        0.1615
      5 N         142.8979  140.8719  163.4510 N.ar    1  UNL1       -0.2940
      6 C         142.0565  141.7617  164.3171 C.3     1  UNL1        0.1302
      7 C         141.9007  141.4571  165.7776 C.3     1  UNL1        0.1186
      8 N         142.5862  140.2625  166.3719 N.am    1  UNL1       -0.2688
      9 C         142.4303  139.9579  167.8323 C.2     1  UNL1        0.2493
     10 O         143.1159  138.7633  168.4266 O.2     1  UNL1       -0.2699
     11 C         143.4276  139.3727  165.5057 C.3     1  UNL1        0.1343
     12 C         144.1131  138.1782  166.0999 C.3     1  UNL1        0.0298
     13 C         141.5890  140.8477  168.6984 C.ar    1  UNL1        0.0536
     14 C         140.2155  140.4099  169.1129 C.ar    1  UNL1        0.0054
     15 C         139.3741  141.2998  169.9791 C.ar    1  UNL1        0.0115
     16 C         139.9062  142.6275  170.4307 C.ar    1  UNL1        0.0577
     17 CL        139.0648  143.5174  171.2969 Cl      1  UNL1       -0.0822
     18 C         141.2797  143.0653  170.0162 C.ar    1  UNL1        0.0115
     19 C         142.1211  142.1755  169.1501 C.ar    1  UNL1        0.0054
     20 C         140.1144  143.8428  158.8905 C.3     1  UNL1        0.0744
     21 C         141.3258  143.2949  159.5849 C.ar    1  UNL1        0.1481
     22 N         142.7343  143.7829  159.4172 N.ar    1  UNL1       -0.1929
     23 S         143.6204  142.9525  160.2977 S.2     1  UNL1        0.0369
     24 C         142.7596  141.9514  161.0095 C.ar    1  UNL1        0.1652
     25 N         141.3414  142.1630  160.5690 N.ar    1  UNL1       -0.2190
@<TRIPOS>BOND
     1    20    21    1
     2    21    22   ar
     3    22    23   ar
     4    23    24   ar
     5    24     1    1
     6     1     2   ar
     7     2     3   ar
     8     3     4   ar
     9     4     5   ar
    10     5     6    1
    11     6     7    1
    12     7     8    1
    13     8     9   am
    14     9    10    2
    15     9    13    1
    16    13    14   ar
    17    14    15   ar
    18    15    16   ar
    19    16    17    1
    20    16    18   ar
    21    18    19   ar
    22     8    11    1
    23    11    12    1
    24    24    25   ar
    25    25    21   ar
    26     5     1   ar
    27    19    13   ar
    28    11     4    1
@<TRIPOS>MOLECULE
*****
 25 28 0 0 0
SMALL
GASTEIGER

@<TRIPOS>ATOM
      1 C         141.7668  143.2321  161.0610 C.ar    1  UNL1        0.1917
      2 N         143.1101  143.8267  160.7574 N.ar    1  UNL1       -0.1268
      3 N         143.8855  143.8988  162.0394 N.ar    1  UNL1       -0.1316
      4 C         143.0214  143.3487  163.1353 C.ar    1  UNL1        0.1615
      5 N         141.7120  142.9367  162.5306 N.ar    1  UNL1       -0.2940
      6 C         140.6390  142.3457  163.3962 C.3     1  UNL1        0.1302
      7 C         140.8754  142.1668  164.8667 C.3     1  UNL1        0.1186
      8 N         142.1848  142.5788  165.4714 N.am    1  UNL1       -0.2688
      9 C         142.4212  142.3999  166.9418 C.2     1  UNL1        0.2493
     10 O         143.7306  142.8119  167.5465 O.2     1  UNL1       -0.2699
     11 C         143.2578  143.1698  164.6057 C.3     1  UNL1        0.1343
     12 C         144.5672  143.5818  165.2104 C.3     1  UNL1        0.0298
     13 C         141.3482  141.8089  167.8074 C.ar    1  UNL1        0.0536
     14 C         140.8212  142.5807  168.9807 C.ar    1  UNL1        0.0054
     15 C         139.7481  141.9897  169.8463 C.ar    1  UNL1        0.0115
     16 C         139.2021  140.6269  169.5387 C.ar    1  UNL1        0.0577
     17 CL        138.1290  140.0359  170.4044 Cl      1  UNL1       -0.0822
     18 C         139.7291  139.8551  168.3654 C.ar    1  UNL1        0.0115
     19 C         140.8021  140.4461  167.4998 C.ar    1  UNL1        0.0054
     20 C         137.9735  140.8423  158.2717 C.3     1  UNL1        0.0744
     21 C         138.9272  141.8791  158.7870 C.ar    1  UNL1        0.1481
     22 N         139.0410  143.2928  158.2984 N.ar    1  UNL1       -0.1929
     23 S         140.1187  143.9717  159.0908 S.2     1  UNL1        0.0369
     24 C         140.6708  142.9776  160.0690 C.ar    1  UNL1        0.1652
     25 N         139.9344  141.6844  159.8813 N.ar    1  UNL1       -0.2190
@<TRIPOS>BOND
     1    20    21    1
     2    21    22   ar
     3    22    23   ar
     4    23    24   ar
     5    24     1    1
     6     1     2   ar
     7     2     3   ar
     8     3     4   ar
     9     4     5   ar
    10     5     6    1
    11     6     7    1
    12     7     8    1
    13     8     9   am
    14     9    10    2
    15     9    13    1
    16    13    14   ar
    17    14    15   ar
    18    15    16   ar
    19    16    17    1
    20    16    18   ar
    21    18    19   ar
    22     8    11    1
    23    11    12    1
    24    24    25   ar
    25    25    21   ar
    26     5     1   ar
    27    19    13   ar
    28    11     4    1
@<TRIPOS>MOLECULE
*****
 25 28 0 0 0
SMALL
GASTEIGER

@<TRIPOS>ATOM
      1 C         142.7839  143.4842  158.5224 C.ar    1  UNL1        0.1917
      2 N         142.6210  144.9018  158.0599 N.ar    1  UNL1       -0.1268
      3 N         141.7583  145.6181  159.0562 N.ar    1  UNL1       -0.1316
      4 C         141.3880  144.6433  160.1344 C.ar    1  UNL1        0.1615
      5 N         142.0219  143.3245  159.8045 N.ar    1  UNL1       -0.2940
      6 C         141.8233  142.1485  160.7142 C.3     1  UNL1        0.1302
      7 C         140.9908  142.2913  161.9539 C.3     1  UNL1        0.1186
      8 N         140.3570  143.6102  162.2838 N.am    1  UNL1       -0.2688
      9 C         139.5246  143.7531  163.5234 C.2     1  UNL1        0.2493
     10 O         138.8907  145.0720  163.8532 O.2     1  UNL1       -0.2699
     11 C         140.5556  144.7862  161.3740 C.3     1  UNL1        0.1343
     12 C         139.9218  146.1051  161.7039 C.3     1  UNL1        0.0298
     13 C         139.3260  142.5771  164.4331 C.ar    1  UNL1        0.0536
     14 C         140.1611  142.4372  165.6712 C.ar    1  UNL1        0.0054
     15 C         139.9625  141.2611  166.5809 C.ar    1  UNL1        0.0115
     16 C         138.9288  140.2251  166.2525 C.ar    1  UNL1        0.0577
     17 CL        138.7302  139.0490  167.1622 Cl      1  UNL1       -0.0822
     18 C         138.0936  140.3650  165.0144 C.ar    1  UNL1        0.0115
     19 C         138.2922  141.5410  164.1047 C.ar    1  UNL1        0.0054
     20 C         144.0286  139.1776  155.7324 C.3     1  UNL1        0.0744
     21 C         144.1427  140.4346  156.5428 C.ar    1  UNL1        0.1481
     22 N         145.4199  141.1005  156.9619 N.ar    1  UNL1       -0.1929
     23 S         145.0662  142.3239  157.7546 S.2     1  UNL1        0.0369
     24 C         143.5706  142.4142  157.8252 C.ar    1  UNL1        0.1652
     25 N         142.9999  141.2466  157.0763 N.ar    1  UNL1       -0.2190
@<TRIPOS>BOND
     1    20    21    1
     2    21    22   ar
     3    22    23   ar
     4    23    24   ar
     5    24     1    1
     6     1     2   ar
     7     2     3   ar
     8     3     4   ar
     9     4     5   ar
    10     5     6    1
    11     6     7    1
    12     7     8    1
    13     8     9   am
    14     9    10    2
    15     9    13    1
    16    13    14   ar
    17    14    15   ar
    18    15    16   ar
    19    16    17    1
    20    16    18   ar
    21    18    19   ar
    22     8    11    1
    23    11    12    1
    24    24    25   ar
    25    25    21   ar
    26     5     1   ar
    27    19    13   ar
    28    11     4    1
@<TRIPOS>MOLECULE
*****
 25 28 0 0 0
SMALL
GASTEIGER

@<TRIPOS>ATOM
      1 C         141.0602  139.3197  161.8517 C.ar    1  UNL1        0.1917
      2 N         142.1100  138.3020  161.5166 N.ar    1  UNL1       -0.1268
      3 N         142.8502  137.9672  162.7776 N.ar    1  UNL1       -0.1316
      4 C         142.2579  138.7780  163.8920 C.ar    1  UNL1        0.1615
      5 N         141.1516  139.6139  163.3197 N.ar    1  UNL1       -0.2940
      6 C         140.3705  140.5349  164.2093 C.3     1  UNL1        0.1302
      7 C         140.6955  140.6201  165.6712 C.3     1  UNL1        0.1186
      8 N         141.8018  139.7843  166.2435 N.am    1  UNL1       -0.2688
      9 C         142.1269  139.8695  167.7053 C.2     1  UNL1        0.2493
     10 O         143.2332  139.0336  168.2776 O.2     1  UNL1       -0.2699
     11 C         142.5830  138.8632  165.3538 C.3     1  UNL1        0.1343
     12 C         143.6893  138.0274  165.9261 C.3     1  UNL1        0.0298
     13 C         141.3457  140.7905  168.5949 C.ar    1  UNL1        0.0536
     14 C         141.8288  142.1902  168.8345 C.ar    1  UNL1        0.0054
     15 C         141.0475  143.1113  169.7242 C.ar    1  UNL1        0.0115
     16 C         139.7833  142.6326  170.3741 C.ar    1  UNL1        0.0577
     17 CL        139.0020  143.5536  171.2638 Cl      1  UNL1       -0.0822
     18 C         139.3002  141.2328  170.1345 C.ar    1  UNL1        0.0115
     19 C         140.0814  140.3118  169.2449 C.ar    1  UNL1        0.0054
     20 C         138.6497  142.7784  158.6726 C.3     1  UNL1        0.0744
     21 C         138.9815  141.5249  159.4267 C.ar    1  UNL1        0.1481
     22 N         138.2097  140.2394  159.3831 N.ar    1  UNL1       -0.1929
     23 S         138.8945  139.2568  160.2863 S.2     1  UNL1        0.0369
     24 C         140.0895  139.9351  160.8879 C.ar    1  UNL1        0.1652
     25 N         140.1432  141.3368  160.3567 N.ar    1  UNL1       -0.2190
@<TRIPOS>BOND
     1    20    21    1
     2    21    22   ar
     3    22    23   ar
     4    23    24   ar
     5    24     1    1
     6     1     2   ar
     7     2     3   ar
     8     3     4   ar
     9     4     5   ar
    10     5     6    1
    11     6     7    1
    12     7     8    1
    13     8     9   am
    14     9    10    2
    15     9    13    1
    16    13    14   ar
    17    14    15   ar
    18    15    16   ar
    19    16    17    1
    20    16    18   ar
    21    18    19   ar
    22     8    11    1
    23    11    12    1
    24    24    25   ar
    25    25    21   ar
    26     5     1   ar
    27    19    13   ar
    28    11     4    1
@<TRIPOS>MOLECULE
*****
 25 28 0 0 0
SMALL
GASTEIGER

@<TRIPOS>ATOM
      1 C         139.2523  139.7777  167.4895 C.ar    1  UNL1        0.1917
      2 N         138.1616  138.7528  167.5901 N.ar    1  UNL1       -0.1268
      3 N         137.9634  138.1519  166.2301 N.ar    1  UNL1       -0.1316
      4 C         138.9315  138.8054  165.2890 C.ar    1  UNL1        0.1615
      5 N         139.7281  139.8102  166.0673 N.ar    1  UNL1       -0.2940
      6 C         140.7838  140.6249  165.3805 C.3     1  UNL1        0.1302
      7 C         141.0429  140.4348  163.9153 C.3     1  UNL1        0.1186
      8 N         140.2463  139.4300  163.1370 N.am    1  UNL1       -0.2688
      9 C         140.5054  139.2400  161.6718 C.2     1  UNL1        0.2493
     10 O         139.7088  138.2352  160.8935 O.2     1  UNL1       -0.2699
     11 C         139.1906  138.6153  163.8238 C.3     1  UNL1        0.1343
     12 C         138.3940  137.6105  163.0455 C.3     1  UNL1        0.0298
     13 C         141.5611  140.0547  160.9850 C.ar    1  UNL1        0.0536
     14 C         142.9602  139.5261  160.8706 C.ar    1  UNL1        0.0054
     15 C         144.0159  140.3409  160.1838 C.ar    1  UNL1        0.0115
     16 C         143.6725  141.6842  159.6114 C.ar    1  UNL1        0.0577
     17 CL        144.7282  142.4990  158.9246 Cl      1  UNL1       -0.0822
     18 C         142.2734  142.2127  159.7258 C.ar    1  UNL1        0.0115
     19 C         141.2177  141.3980  160.4126 C.ar    1  UNL1        0.0054
     20 C         142.1229  143.2426  170.2525 C.3     1  UNL1        0.0744
     21 C         141.0949  142.2145  169.8837 C.ar    1  UNL1        0.1481
     22 N         140.0657  141.6274  170.8035 N.ar    1  UNL1       -0.1929
     23 S         139.2501  140.6430  170.0186 S.2     1  UNL1        0.0369
     24 C         139.7753  140.6219  168.6137 C.ar    1  UNL1        0.1652
     25 N         140.9154  141.5931  168.5303 N.ar    1  UNL1       -0.2190
@<TRIPOS>BOND
     1    20    21    1
     2    21    22   ar
     3    22    23   ar
     4    23    24   ar
     5    24     1    1
     6     1     2   ar
     7     2     3   ar
     8     3     4   ar
     9     4     5   ar
    10     5     6    1
    11     6     7    1
    12     7     8    1
    13     8     9   am
    14     9    10    2
    15     9    13    1
    16    13    14   ar
    17    14    15   ar
    18    15    16   ar
    19    16    17    1
    20    16    18   ar
    21    18    19   ar
    22     8    11    1
    23    11    12    1
    24    24    25   ar
    25    25    21   ar
    26     5     1   ar
    27    19    13   ar
    28    11     4    1
