@<TRIPOS>MOLECULE
*****
 36 38 0 0 0
SMALL
GASTEIGER

@<TRIPOS>ATOM
      1 C         138.5132  139.4336  159.7720 C.3     1  UNL1        0.1017
      2 C         137.5466  139.3904  160.9183 C.3     1  UNL1        0.0394
      3 C         137.9378  138.7252  162.2046 C.3     1  UNL1        0.0739
      4 N         139.2955  138.1031  162.3446 N.3     1  UNL1       -0.2705
      5 C         140.2621  138.1463  161.1983 C.3     1  UNL1        0.1037
      6 C         139.8710  138.8115  159.9121 C.3     1  UNL1        0.1490
      7 C         138.1604  141.5940  158.3727 C.2     1  UNL1        0.2488
      8 O         138.5899  142.4241  159.5460 O.2     1  UNL1       -0.2700
      9 N         138.1221  140.0988  158.4858 N.am    1  UNL1       -0.2999
     10 H         137.8402  139.5540  157.7157 H       1  UNL1        0.1498
     11 C         136.6015  141.7423  156.2996 C.ar    1  UNL1        0.1443
     12 C         136.2104  142.4074  155.0133 C.ar    1  UNL1        0.0520
     13 C         136.9870  143.5895  154.5139 C.ar    1  UNL1        0.0553
     14 N         136.5959  144.2547  153.2275 N.pl3   1  UNL1       -0.3563
     15 C         138.1548  144.1064  155.3006 C.ar    1  UNL1        0.0709
     16 CL        138.9315  145.2885  154.8012 Cl      1  UNL1       -0.0810
     17 C         138.5459  143.4413  156.5869 C.ar    1  UNL1        0.0202
     18 C         137.7692  142.2592  157.0864 C.ar    1  UNL1        0.0882
     19 H         135.8294  143.9154  152.7111 H       1  UNL1        0.1424
     20 H         137.1056  145.0305  152.8997 H       1  UNL1        0.1424
     21 C         134.4536  140.2812  156.2590 C.3     1  UNL1        0.2525
     22 O         135.8248  140.5602  156.7991 O.3     1  UNL1       -0.4712
     23 O         140.8376  138.8546  158.7658 O.3     1  UNL1       -0.3505
     24 C         142.2607  138.4261  158.9683 C.3     1  UNL1        0.1741
     25 C         139.6867  137.4380  163.6308 C.3     1  UNL1        0.0722
     26 C         139.9166  138.2631  164.8622 C.3     1  UNL1        0.0194
     27 C         141.3046  138.7045  165.2209 C.3     1  UNL1        0.0229
     28 C         141.5345  139.5296  166.4523 C.3     1  UNL1        0.0910
     29 N         140.3765  139.9132  167.3250 N.am    1  UNL1       -0.3055
     30 C         138.9885  139.4718  166.9664 C.3     1  UNL1        0.0910
     31 C         138.7585  138.6467  165.7350 C.3     1  UNL1        0.0229
     32 C         140.6065  140.7383  168.5564 C.2     1  UNL1        0.0609
     33 S         140.9621  140.0700  169.8514 S.2     1  UNL1       -0.0395
     34 C         140.4809  142.2317  168.4929 C.3     1  UNL1        0.0426
     35 C         140.4251  142.9237  167.1632 C.3     1  UNL1        0.0066
     36 C         140.4110  143.0329  169.7590 C.3     1  UNL1        0.0066
@<TRIPOS>BOND
     1    21    22    1
     2    22    11    1
     3    11    12   ar
     4    12    13   ar
     5    13    14    1
     6    13    15   ar
     7    15    16    1
     8    15    17   ar
     9    17    18   ar
    10    18     7    1
    11     7     8    2
    12     7     9   am
    13     1     9    1
    14     1     2    1
    15     2     3    1
    16     3     4    1
    17     4    25    1
    18    25    26    1
    19    26    27    1
    20    27    28    1
    21    28    29    1
    22    29    32    1
    23    32    33    2
    24    32    34    1
    25    34    35    1
    26    34    36    1
    27    29    30    1
    28    30    31    1
    29     4     5    1
    30     5     6    1
    31     6    23    1
    32    23    24    1
    33    18    11   ar
    34     6     1    1
    35    31    26    1
    36    14    19    1
    37    14    20    1
    38     9    10    1
@<TRIPOS>MOLECULE
*****
 36 38 0 0 0
SMALL
GASTEIGER

@<TRIPOS>ATOM
      1 C         141.0279  138.8227  161.0240 C.3     1  UNL1        0.1017
      2 C         140.0060  138.7235  159.9304 C.3     1  UNL1        0.0394
      3 C         140.4172  138.2804  158.5575 C.3     1  UNL1        0.0739
      4 N         141.8503  137.9366  158.2783 N.3     1  UNL1       -0.2705
      5 C         142.8722  138.0358  159.3719 C.3     1  UNL1        0.1037
      6 C         142.4610  138.4789  160.7447 C.3     1  UNL1        0.1490
      7 C         140.4769  138.2585  163.4994 C.2     1  UNL1        0.2488
      8 O         140.7482  136.8082  163.2293 O.2     1  UNL1       -0.2700
      9 N         140.6167  139.2657  162.3967 N.am    1  UNL1       -0.2999
     10 H         140.4386  140.2176  162.5741 H       1  UNL1        0.1498
     11 C         140.9282  139.6576  165.6416 C.ar    1  UNL1        0.1443
     12 C         140.5170  140.1007  167.0143 C.ar    1  UNL1        0.0520
     13 C         139.2432  139.5877  167.6178 C.ar    1  UNL1        0.0553
     14 N         138.8320  140.0308  168.9907 N.pl3   1  UNL1       -0.3563
     15 C         138.3806  138.6316  166.8485 C.ar    1  UNL1        0.0709
     16 CL        137.1068  138.1186  167.4520 Cl      1  UNL1       -0.0810
     17 C         138.7918  138.1886  165.4758 C.ar    1  UNL1        0.0202
     18 C         140.0656  138.7016  164.8723 C.ar    1  UNL1        0.0882
     19 H         139.3982  140.6583  169.4956 H       1  UNL1        0.1424
     20 H         137.9959  139.6941  169.3868 H       1  UNL1        0.1424
     21 C         142.3004  141.6010  164.5974 C.3     1  UNL1        0.2525
     22 O         142.2021  140.1706  165.0381 O.3     1  UNL1       -0.4712
     23 O         143.4829  138.5781  161.8382 O.3     1  UNL1       -0.3505
     24 C         144.2848  139.8349  162.0037 C.3     1  UNL1        0.1741
     25 C         142.2615  137.4936  156.9055 C.3     1  UNL1        0.0722
     26 C         142.2976  136.0324  156.5684 C.3     1  UNL1        0.0194
     27 C         143.3027  135.1352  157.2278 C.3     1  UNL1        0.0229
     28 C         143.3388  133.6740  156.8906 C.3     1  UNL1        0.0910
     29 N         142.3699  133.1101  155.8941 N.am    1  UNL1       -0.3055
     30 C         141.3647  134.0073  155.2347 C.3     1  UNL1        0.0910
     31 C         141.3286  135.4685  155.5718 C.3     1  UNL1        0.0229
     32 C         142.4060  131.6489  155.5570 C.2     1  UNL1        0.0609
     33 S         141.3461  131.0559  154.6765 S.2     1  UNL1       -0.0395
     34 C         143.5018  130.7807  156.1003 C.3     1  UNL1        0.0426
     35 C         144.7487  130.5562  155.2973 C.3     1  UNL1        0.0066
     36 C         143.3508  130.1370  157.4467 C.3     1  UNL1        0.0066
@<TRIPOS>BOND
     1    21    22    1
     2    22    11    1
     3    11    12   ar
     4    12    13   ar
     5    13    14    1
     6    13    15   ar
     7    15    16    1
     8    15    17   ar
     9    17    18   ar
    10    18     7    1
    11     7     8    2
    12     7     9   am
    13     1     9    1
    14     1     2    1
    15     2     3    1
    16     3     4    1
    17     4    25    1
    18    25    26    1
    19    26    27    1
    20    27    28    1
    21    28    29    1
    22    29    32    1
    23    32    33    2
    24    32    34    1
    25    34    35    1
    26    34    36    1
    27    29    30    1
    28    30    31    1
    29     4     5    1
    30     5     6    1
    31     6    23    1
    32    23    24    1
    33    18    11   ar
    34     6     1    1
    35    31    26    1
    36    14    19    1
    37    14    20    1
    38     9    10    1
@<TRIPOS>MOLECULE
*****
 36 38 0 0 0
SMALL
GASTEIGER

@<TRIPOS>ATOM
      1 C         141.1087  138.7753  160.9888 C.3     1  UNL1        0.1017
      2 C         142.5071  138.2910  160.7435 C.3     1  UNL1        0.0394
      3 C         142.9130  137.8338  159.3737 C.3     1  UNL1        0.0739
      4 N         141.9206  137.8608  158.2493 N.3     1  UNL1       -0.2705
      5 C         140.5223  138.3450  158.4945 C.3     1  UNL1        0.1037
      6 C         140.1163  138.8023  159.8642 C.3     1  UNL1        0.1490
      7 C         140.5312  138.2322  163.4629 C.2     1  UNL1        0.2488
      8 O         140.7655  136.7746  163.1977 O.2     1  UNL1       -0.2700
      9 N         140.7028  139.2325  162.3584 N.am    1  UNL1       -0.2999
     10 H         140.5490  140.1892  162.5325 H       1  UNL1        0.1498
     11 C         141.0059  139.6294  165.6012 C.ar    1  UNL1        0.1443
     12 C         140.5999  140.0867  166.9709 C.ar    1  UNL1        0.0520
     13 C         139.3132  139.6040  167.5719 C.ar    1  UNL1        0.0553
     14 N         138.9072  140.0614  168.9417 N.pl3   1  UNL1       -0.3563
     15 C         138.4324  138.6641  166.8034 C.ar    1  UNL1        0.0709
     16 CL        137.1456  138.1815  167.4044 Cl      1  UNL1       -0.0810
     17 C         138.8384  138.2069  165.4337 C.ar    1  UNL1        0.0202
     18 C         140.1252  138.6895  164.8326 C.ar    1  UNL1        0.0882
     19 H         139.4853  140.6783  169.4461 H       1  UNL1        0.1424
     20 H         138.0626  139.7446  169.3362 H       1  UNL1        0.1424
     21 C         142.4895  141.5729  164.7228 C.3     1  UNL1        0.2525
     22 O         142.2927  140.1120  165.0001 O.3     1  UNL1       -0.4712
     23 O         138.7180  139.2865  160.1095 O.3     1  UNL1       -0.3505
     24 C         138.1042  140.3019  159.1918 C.3     1  UNL1        0.1741
     25 C         142.3266  137.4035  156.8796 C.3     1  UNL1        0.0722
     26 C         142.3138  135.9420  156.5424 C.3     1  UNL1        0.0194
     27 C         143.2678  135.0065  157.2242 C.3     1  UNL1        0.0229
     28 C         143.2549  133.5450  156.8869 C.3     1  UNL1        0.0910
     29 N         142.2881  133.0189  155.8679 N.am    1  UNL1       -0.3055
     30 C         141.3341  133.9543  155.1861 C.3     1  UNL1        0.0910
     31 C         141.3469  135.4158  155.5233 C.3     1  UNL1        0.0229
     32 C         142.2753  131.5573  155.5307 C.2     1  UNL1        0.0609
     33 S         141.1368  130.9792  154.7434 S.2     1  UNL1       -0.0395
     34 C         143.4009  130.6739  155.9806 C.3     1  UNL1        0.0426
     35 C         144.6443  130.5612  155.1492 C.3     1  UNL1        0.0066
     36 C         143.2831  129.9031  157.2620 C.3     1  UNL1        0.0066
@<TRIPOS>BOND
     1    21    22    1
     2    22    11    1
     3    11    12   ar
     4    12    13   ar
     5    13    14    1
     6    13    15   ar
     7    15    16    1
     8    15    17   ar
     9    17    18   ar
    10    18     7    1
    11     7     8    2
    12     7     9   am
    13     1     9    1
    14     1     2    1
    15     2     3    1
    16     3     4    1
    17     4    25    1
    18    25    26    1
    19    26    27    1
    20    27    28    1
    21    28    29    1
    22    29    32    1
    23    32    33    2
    24    32    34    1
    25    34    35    1
    26    34    36    1
    27    29    30    1
    28    30    31    1
    29     4     5    1
    30     5     6    1
    31     6    23    1
    32    23    24    1
    33    18    11   ar
    34     6     1    1
    35    31    26    1
    36    14    19    1
    37    14    20    1
    38     9    10    1
@<TRIPOS>MOLECULE
*****
 36 38 0 0 0
SMALL
GASTEIGER

@<TRIPOS>ATOM
      1 C         142.1165  141.7776  162.8313 C.3     1  UNL1        0.1017
      2 C         141.1332  141.6298  161.7082 C.3     1  UNL1        0.0394
      3 C         141.5060  142.0674  160.3226 C.3     1  UNL1        0.0739
      4 N         142.8618  142.6528  160.0603 N.3     1  UNL1       -0.2705
      5 C         143.8451  142.8006  161.1834 C.3     1  UNL1        0.1037
      6 C         143.4724  142.3630  162.5689 C.3     1  UNL1        0.1490
      7 C         140.8933  142.2247  165.0794 C.2     1  UNL1        0.2488
      8 O         140.4154  143.5469  164.5565 O.2     1  UNL1       -0.2700
      9 N         141.7438  141.3401  164.2168 N.am    1  UNL1       -0.2999
     10 H         142.0574  140.4722  164.5600 H       1  UNL1        0.1498
     11 C         140.0376  140.3874  166.7049 C.ar    1  UNL1        0.1443
     12 C         139.6650  139.9498  168.0904 C.ar    1  UNL1        0.0520
     13 C         139.7754  140.9119  169.2359 C.ar    1  UNL1        0.0553
     14 N         139.4027  140.4743  170.6215 N.pl3   1  UNL1       -0.3563
     15 C         140.2584  142.3116  168.9960 C.ar    1  UNL1        0.0709
     16 CL        140.3688  143.2737  170.1415 Cl      1  UNL1       -0.0810
     17 C         140.6310  142.7491  167.6105 C.ar    1  UNL1        0.0202
     18 C         140.5206  141.7870  166.4650 C.ar    1  UNL1        0.0882
     19 H         139.0857  139.5556  170.7790 H       1  UNL1        0.1424
     20 H         139.4752  141.1057  171.3734 H       1  UNL1        0.1424
     21 C         138.6119  138.7732  165.2518 C.3     1  UNL1        0.2525
     22 O         139.9272  139.4253  165.5594 O.3     1  UNL1       -0.4712
     23 O         144.4556  142.5108  163.6920 O.3     1  UNL1       -0.3505
     24 C         145.6878  141.6561  163.7275 C.3     1  UNL1        0.1741
     25 C         143.2345  143.0904  158.6748 C.3     1  UNL1        0.0722
     26 C         142.2403  143.8291  157.8287 C.3     1  UNL1        0.0194
     27 C         141.5879  143.1420  156.6658 C.3     1  UNL1        0.0229
     28 C         140.5937  143.8807  155.8197 C.3     1  UNL1        0.0910
     29 N         140.2519  145.3065  156.1365 N.am    1  UNL1       -0.3055
     30 C         140.9044  145.9936  157.2994 C.3     1  UNL1        0.0910
     31 C         141.8985  145.2549  158.1455 C.3     1  UNL1        0.0229
     32 C         139.2578  146.0452  155.2904 C.2     1  UNL1        0.0609
     33 S         137.9216  145.4309  154.9945 S.2     1  UNL1       -0.0395
     34 C         139.5997  147.3980  154.7401 C.3     1  UNL1        0.0426
     35 C         140.6275  147.5286  153.6554 C.3     1  UNL1        0.0066
     36 C         138.9138  148.6202  155.2745 C.3     1  UNL1        0.0066
@<TRIPOS>BOND
     1    21    22    1
     2    22    11    1
     3    11    12   ar
     4    12    13   ar
     5    13    14    1
     6    13    15   ar
     7    15    16    1
     8    15    17   ar
     9    17    18   ar
    10    18     7    1
    11     7     8    2
    12     7     9   am
    13     1     9    1
    14     1     2    1
    15     2     3    1
    16     3     4    1
    17     4    25    1
    18    25    26    1
    19    26    27    1
    20    27    28    1
    21    28    29    1
    22    29    32    1
    23    32    33    2
    24    32    34    1
    25    34    35    1
    26    34    36    1
    27    29    30    1
    28    30    31    1
    29     4     5    1
    30     5     6    1
    31     6    23    1
    32    23    24    1
    33    18    11   ar
    34     6     1    1
    35    31    26    1
    36    14    19    1
    37    14    20    1
    38     9    10    1
@<TRIPOS>MOLECULE
*****
 36 38 0 0 0
SMALL
GASTEIGER

@<TRIPOS>ATOM
      1 C         143.4180  138.9446  159.7951 C.3     1  UNL1        0.1017
      2 C         143.6382  138.0015  160.9405 C.3     1  UNL1        0.0394
      3 C         144.1172  138.5255  162.2620 C.3     1  UNL1        0.0739
      4 N         144.3760  139.9925  162.4379 N.3     1  UNL1       -0.2705
      5 C         144.1559  140.9355  161.2924 C.3     1  UNL1        0.1037
      6 C         143.6769  140.4117  159.9710 C.3     1  UNL1        0.1490
      7 C         141.4749  138.1883  158.2452 C.2     1  UNL1        0.2488
      8 O         140.4897  138.4798  159.3381 O.2     1  UNL1       -0.2700
      9 N         142.9390  138.4207  158.4737 N.am    1  UNL1       -0.2999
     10 H         143.5856  138.2294  157.7564 H       1  UNL1        0.1498
     11 C         141.7776  136.6013  156.2105 C.ar    1  UNL1        0.1443
     12 C         141.2986  136.0775  154.8891 C.ar    1  UNL1        0.0520
     13 C         140.0379  136.6167  154.2810 C.ar    1  UNL1        0.0553
     14 N         139.5590  136.0928  152.9595 N.pl3   1  UNL1       -0.3563
     15 C         139.2562  137.6798  154.9942 C.ar    1  UNL1        0.0709
     16 CL        137.9955  138.2190  154.3860 Cl      1  UNL1       -0.0810
     17 C         139.7352  138.2037  156.3156 C.ar    1  UNL1        0.0202
     18 C         140.9959  137.6644  156.9237 C.ar    1  UNL1        0.0882
     19 H         140.0720  135.3951  152.4914 H       1  UNL1        0.1424
     20 H         138.7315  136.4467  152.5603 H       1  UNL1        0.1424
     21 C         143.2341  134.5807  156.9491 C.3     1  UNL1        0.2525
     22 O         143.0383  136.0621  156.8187 O.3     1  UNL1       -0.4712
     23 O         143.4567  141.3547  158.8255 O.3     1  UNL1       -0.3505
     24 C         142.1060  141.9703  158.6098 C.3     1  UNL1        0.1741
     25 C         144.8550  140.5163  163.7592 C.3     1  UNL1        0.0722
     26 C         143.9849  140.3933  164.9748 C.3     1  UNL1        0.0194
     27 C         143.3347  141.6126  165.5583 C.3     1  UNL1        0.0229
     28 C         142.4645  141.4895  166.7739 C.3     1  UNL1        0.0910
     29 N         142.2446  140.1472  167.4060 N.am    1  UNL1       -0.3055
     30 C         142.8948  138.9278  166.8225 C.3     1  UNL1        0.0910
     31 C         143.7649  139.0508  165.6069 C.3     1  UNL1        0.0229
     32 C         141.3744  140.0241  168.6216 C.2     1  UNL1        0.0609
     33 S         141.9975  139.8729  169.9778 S.2     1  UNL1       -0.0395
     34 C         139.8813  140.0523  168.4812 C.3     1  UNL1        0.0426
     35 C         139.2475  139.7664  167.1520 C.3     1  UNL1        0.0066
     36 C         139.0220  140.3663  169.6698 C.3     1  UNL1        0.0066
@<TRIPOS>BOND
     1    21    22    1
     2    22    11    1
     3    11    12   ar
     4    12    13   ar
     5    13    14    1
     6    13    15   ar
     7    15    16    1
     8    15    17   ar
     9    17    18   ar
    10    18     7    1
    11     7     8    2
    12     7     9   am
    13     1     9    1
    14     1     2    1
    15     2     3    1
    16     3     4    1
    17     4    25    1
    18    25    26    1
    19    26    27    1
    20    27    28    1
    21    28    29    1
    22    29    32    1
    23    32    33    2
    24    32    34    1
    25    34    35    1
    26    34    36    1
    27    29    30    1
    28    30    31    1
    29     4     5    1
    30     5     6    1
    31     6    23    1
    32    23    24    1
    33    18    11   ar
    34     6     1    1
    35    31    26    1
    36    14    19    1
    37    14    20    1
    38     9    10    1
@<TRIPOS>MOLECULE
*****
 36 38 0 0 0
SMALL
GASTEIGER

@<TRIPOS>ATOM
      1 C         141.4751  138.3979  163.4180 C.3     1  UNL1        0.1017
      2 C         142.8787  138.2478  162.9106 C.3     1  UNL1        0.0394
      3 C         143.1342  138.1208  161.4379 C.3     1  UNL1        0.0739
      4 N         141.9861  138.1439  160.4728 N.3     1  UNL1       -0.2705
      5 C         140.5826  138.2940  160.9803 C.3     1  UNL1        0.1037
      6 C         140.3271  138.4210  162.4528 C.3     1  UNL1        0.1490
      7 C         141.4466  139.8373  165.5808 C.2     1  UNL1        0.2488
      8 O         141.9291  141.0226  164.7983 O.2     1  UNL1       -0.2700
      9 N         141.2196  138.5250  164.8906 N.am    1  UNL1       -0.2999
     10 H         140.9029  137.7470  165.4042 H       1  UNL1        0.1498
     11 C         139.7884  139.8926  167.5801 C.ar    1  UNL1        0.1443
     12 C         139.5329  140.0196  169.0527 C.ar    1  UNL1        0.0520
     13 C         140.6801  140.2183  169.9986 C.ar    1  UNL1        0.0553
     14 N         140.4245  140.3453  171.4712 N.pl3   1  UNL1       -0.3563
     15 C         142.0827  140.2900  169.4719 C.ar    1  UNL1        0.0709
     16 CL        143.2298  140.4886  170.4177 Cl      1  UNL1       -0.0810
     17 C         142.3382  140.1630  167.9993 C.ar    1  UNL1        0.0202
     18 C         141.1910  139.9643  167.0534 C.ar    1  UNL1        0.0882
     19 H         139.5039  140.2982  171.8169 H       1  UNL1        0.1424
     20 H         141.1774  140.4757  172.0920 H       1  UNL1        0.1424
     21 C         137.7559  138.4910  166.7714 C.3     1  UNL1        0.2525
     22 O         138.6413  139.6939  166.6343 O.3     1  UNL1       -0.4712
     23 O         138.9235  138.5711  162.9603 O.3     1  UNL1       -0.3505
     24 C         138.3155  139.9360  163.0919 C.3     1  UNL1        0.1741
     25 C         142.2417  138.0168  159.0002 C.3     1  UNL1        0.0722
     26 C         141.2815  138.6191  158.0177 C.3     1  UNL1        0.0194
     27 C         141.2539  140.1043  157.8100 C.3     1  UNL1        0.0229
     28 C         140.2938  140.7066  156.8275 C.3     1  UNL1        0.0910
     29 N         139.3612  139.8236  156.0526 N.am    1  UNL1       -0.3055
     30 C         139.3887  138.3382  156.2603 C.3     1  UNL1        0.0910
     31 C         140.3489  137.7360  157.2428 C.3     1  UNL1        0.0229
     32 C         138.4010  140.4258  155.0701 C.2     1  UNL1        0.0609
     33 S         138.9180  141.2103  153.9007 S.2     1  UNL1       -0.0395
     34 C         136.9239  140.2435  155.2568 C.3     1  UNL1        0.0426
     35 C         136.1738  139.2696  154.3973 C.3     1  UNL1        0.0066
     36 C         136.1969  141.0352  156.3031 C.3     1  UNL1        0.0066
@<TRIPOS>BOND
     1    21    22    1
     2    22    11    1
     3    11    12   ar
     4    12    13   ar
     5    13    14    1
     6    13    15   ar
     7    15    16    1
     8    15    17   ar
     9    17    18   ar
    10    18     7    1
    11     7     8    2
    12     7     9   am
    13     1     9    1
    14     1     2    1
    15     2     3    1
    16     3     4    1
    17     4    25    1
    18    25    26    1
    19    26    27    1
    20    27    28    1
    21    28    29    1
    22    29    32    1
    23    32    33    2
    24    32    34    1
    25    34    35    1
    26    34    36    1
    27    29    30    1
    28    30    31    1
    29     4     5    1
    30     5     6    1
    31     6    23    1
    32    23    24    1
    33    18    11   ar
    34     6     1    1
    35    31    26    1
    36    14    19    1
    37    14    20    1
    38     9    10    1
@<TRIPOS>MOLECULE
*****
 36 38 0 0 0
SMALL
GASTEIGER

@<TRIPOS>ATOM
      1 C         138.6995  139.4270  159.7936 C.3     1  UNL1        0.1017
      2 C         137.6572  139.2018  160.8485 C.3     1  UNL1        0.0394
      3 C         138.0302  138.5407  162.1423 C.3     1  UNL1        0.0739
      4 N         139.4455  138.1048  162.3811 N.3     1  UNL1       -0.2705
      5 C         140.4877  138.3300  161.3262 C.3     1  UNL1        0.1037
      6 C         140.1148  138.9911  160.0324 C.3     1  UNL1        0.1490
      7 C         138.1494  141.5764  158.4418 C.2     1  UNL1        0.2488
      8 O         138.3452  142.4037  159.6776 O.2     1  UNL1       -0.2700
      9 N         138.3266  140.0881  158.4998 N.am    1  UNL1       -0.2999
     10 H         138.1981  139.5451  157.6887 H       1  UNL1        0.1498
     11 C         138.5753  143.4024  156.6433 C.ar    1  UNL1        0.1443
     12 C         138.2024  144.0634  155.3495 C.ar    1  UNL1        0.0520
     13 C         137.0305  143.5595  154.5604 C.ar    1  UNL1        0.0553
     14 N         136.6575  144.2206  153.2665 N.pl3   1  UNL1       -0.3563
     15 C         136.2316  142.3946  155.0650 C.ar    1  UNL1        0.0709
     16 CL        135.0597  141.8907  154.2759 Cl      1  UNL1       -0.0810
     17 C         136.6046  141.7336  156.3588 C.ar    1  UNL1        0.0202
     18 C         137.7764  142.2375  157.1480 C.ar    1  UNL1        0.0882
     19 H         137.1819  144.9851  152.9353 H       1  UNL1        0.1424
     20 H         135.8884  143.8898  152.7486 H       1  UNL1        0.1424
     21 C         140.1040  145.3628  157.3982 C.3     1  UNL1        0.2525
     22 O         139.7472  143.9063  157.4325 O.3     1  UNL1       -0.4712
     23 O         141.1571  139.2162  158.9775 O.3     1  UNL1       -0.3505
     24 C         141.5698  138.0889  158.0782 C.3     1  UNL1        0.1741
     25 C         139.8184  137.4438  163.6749 C.3     1  UNL1        0.0722
     26 C         140.0059  138.2701  164.9126 C.3     1  UNL1        0.0194
     27 C         138.8198  138.6455  165.7506 C.3     1  UNL1        0.0229
     28 C         139.0074  139.4718  166.9883 C.3     1  UNL1        0.0910
     29 N         140.3809  139.9228  167.3881 N.am    1  UNL1       -0.3055
     30 C         141.5671  139.5474  166.5501 C.3     1  UNL1        0.0910
     31 C         141.3796  138.7210  165.3124 C.3     1  UNL1        0.0229
     32 C         140.5685  140.7491  168.6258 C.2     1  UNL1        0.0609
     33 S         140.5507  140.0937  169.9750 S.2     1  UNL1       -0.0395
     34 C         140.7737  142.2308  168.5145 C.3     1  UNL1        0.0426
     35 C         140.3624  142.9532  167.2659 C.3     1  UNL1        0.0066
     36 C         141.3903  142.9901  169.6517 C.3     1  UNL1        0.0066
@<TRIPOS>BOND
     1    21    22    1
     2    22    11    1
     3    11    12   ar
     4    12    13   ar
     5    13    14    1
     6    13    15   ar
     7    15    16    1
     8    15    17   ar
     9    17    18   ar
    10    18     7    1
    11     7     8    2
    12     7     9   am
    13     1     9    1
    14     1     2    1
    15     2     3    1
    16     3     4    1
    17     4    25    1
    18    25    26    1
    19    26    27    1
    20    27    28    1
    21    28    29    1
    22    29    32    1
    23    32    33    2
    24    32    34    1
    25    34    35    1
    26    34    36    1
    27    29    30    1
    28    30    31    1
    29     4     5    1
    30     5     6    1
    31     6    23    1
    32    23    24    1
    33    18    11   ar
    34     6     1    1
    35    31    26    1
    36    14    19    1
    37    14    20    1
    38     9    10    1
@<TRIPOS>MOLECULE
*****
 36 38 0 0 0
SMALL
GASTEIGER

@<TRIPOS>ATOM
      1 C         141.3556  139.8548  163.0388 C.3     1  UNL1        0.1017
      2 C         142.5964  139.2453  162.4567 C.3     1  UNL1        0.0394
      3 C         142.9118  139.4308  161.0020 C.3     1  UNL1        0.0739
      4 N         141.9864  140.2258  160.1294 N.3     1  UNL1       -0.2705
      5 C         140.7455  140.8352  160.7114 C.3     1  UNL1        0.1037
      6 C         140.4301  140.6498  162.1661 C.3     1  UNL1        0.1490
      7 C         141.5823  140.6328  165.5072 C.2     1  UNL1        0.2488
      8 O         142.4399  141.7818  165.0663 O.2     1  UNL1       -0.2700
      9 N         141.0402  139.6693  164.4934 N.am    1  UNL1       -0.2999
     10 H         140.4773  138.9152  164.7828 H       1  UNL1        0.1498
     11 C         139.8518  140.2074  167.3979 C.ar    1  UNL1        0.1443
     12 C         139.5364  140.0219  168.8525 C.ar    1  UNL1        0.0520
     13 C         140.6361  140.0763  169.8712 C.ar    1  UNL1        0.0553
     14 N         140.3206  139.8908  171.3260 N.pl3   1  UNL1       -0.3563
     15 C         142.0511  140.3162  169.4353 C.ar    1  UNL1        0.0709
     16 CL        143.1508  140.3705  170.4540 Cl      1  UNL1       -0.0810
     17 C         142.3665  140.5017  167.9807 C.ar    1  UNL1        0.0202
     18 C         141.2668  140.4473  166.9619 C.ar    1  UNL1        0.0882
     19 H         139.3919  139.7333  171.6121 H       1  UNL1        0.1424
     20 H         141.0423  139.9265  171.9946 H       1  UNL1        0.1424
     21 C         137.9535  138.8955  166.2040 C.3     1  UNL1        0.2525
     22 O         138.7522  140.1531  166.3791 O.3     1  UNL1       -0.4712
     23 O         139.1892  141.2592  162.7481 O.3     1  UNL1       -0.3505
     24 C         137.9105  140.4756  162.7754 C.3     1  UNL1        0.1741
     25 C         142.3018  140.4112  158.6747 C.3     1  UNL1        0.0722
     26 C         142.2785  139.2334  157.7461 C.3     1  UNL1        0.0194
     27 C         141.1233  138.2771  157.7765 C.3     1  UNL1        0.0229
     28 C         141.1001  137.0993  156.8479 C.3     1  UNL1        0.0910
     29 N         142.2320  136.8779  155.8889 N.am    1  UNL1       -0.3055
     30 C         143.3873  137.8342  155.8585 C.3     1  UNL1        0.0910
     31 C         143.4105  139.0120  156.7871 C.3     1  UNL1        0.0229
     32 C         142.2087  135.7001  154.9604 C.2     1  UNL1        0.0609
     33 S         141.9068  135.8987  153.5045 S.2     1  UNL1       -0.0395
     34 C         142.4874  134.3237  155.4876 C.3     1  UNL1        0.0426
     35 C         143.7318  134.0632  156.2836 C.3     1  UNL1        0.0066
     36 C         141.5217  133.2080  155.2188 C.3     1  UNL1        0.0066
@<TRIPOS>BOND
     1    21    22    1
     2    22    11    1
     3    11    12   ar
     4    12    13   ar
     5    13    14    1
     6    13    15   ar
     7    15    16    1
     8    15    17   ar
     9    17    18   ar
    10    18     7    1
    11     7     8    2
    12     7     9   am
    13     1     9    1
    14     1     2    1
    15     2     3    1
    16     3     4    1
    17     4    25    1
    18    25    26    1
    19    26    27    1
    20    27    28    1
    21    28    29    1
    22    29    32    1
    23    32    33    2
    24    32    34    1
    25    34    35    1
    26    34    36    1
    27    29    30    1
    28    30    31    1
    29     4     5    1
    30     5     6    1
    31     6    23    1
    32    23    24    1
    33    18    11   ar
    34     6     1    1
    35    31    26    1
    36    14    19    1
    37    14    20    1
    38     9    10    1
@<TRIPOS>MOLECULE
*****
 36 38 0 0 0
SMALL
GASTEIGER

@<TRIPOS>ATOM
      1 C         141.5367  139.3981  160.8784 C.3     1  UNL1        0.1017
      2 C         140.4723  138.8669  159.9647 C.3     1  UNL1        0.0394
      3 C         140.8198  138.4667  158.5614 C.3     1  UNL1        0.0739
      4 N         142.2316  138.5976  158.0719 N.3     1  UNL1       -0.2705
      5 C         143.2960  139.1288  158.9857 C.3     1  UNL1        0.1037
      6 C         142.9486  139.5290  160.3889 C.3     1  UNL1        0.1490
      7 C         141.2209  138.7792  163.3819 C.2     1  UNL1        0.2488
      8 O         141.5999  137.3599  163.0789 O.2     1  UNL1       -0.2700
      9 N         141.1893  139.7983  162.2817 N.am    1  UNL1       -0.2999
     10 H         140.9405  140.7299  162.4806 H       1  UNL1        0.1498
     11 C         139.4576  139.5279  165.1370 C.ar    1  UNL1        0.1443
     12 C         139.1102  139.9281  166.5402 C.ar    1  UNL1        0.0520
     13 C         140.1788  139.9801  167.5916 C.ar    1  UNL1        0.0553
     14 N         139.8314  140.3804  168.9949 N.pl3   1  UNL1       -0.3563
     15 C         141.5947  139.6318  167.2398 C.ar    1  UNL1        0.0709
     16 CL        142.6633  139.6837  168.2912 Cl      1  UNL1       -0.0810
     17 C         141.9421  139.2315  165.8366 C.ar    1  UNL1        0.0202
     18 C         140.8735  139.1795  164.7852 C.ar    1  UNL1        0.0882
     19 H         138.9020  140.6090  169.2258 H       1  UNL1        0.1424
     20 H         140.5327  140.4145  169.6850 H       1  UNL1        0.1424
     21 C         137.8265  140.7481  163.5245 C.3     1  UNL1        0.2525
     22 O         138.3890  139.4759  164.0856 O.3     1  UNL1       -0.4712
     23 O         144.0130  140.0602  161.3026 O.3     1  UNL1       -0.3505
     24 C         144.2901  141.5334  161.3546 C.3     1  UNL1        0.1741
     25 C         142.5790  138.1974  156.6687 C.3     1  UNL1        0.0722
     26 C         142.8078  136.7528  156.3357 C.3     1  UNL1        0.0194
     27 C         143.1105  135.7702  157.4278 C.3     1  UNL1        0.0229
     28 C         143.3393  134.3256  157.0947 C.3     1  UNL1        0.0910
     29 N         143.2654  133.8637  155.6695 N.am    1  UNL1       -0.3055
     30 C         142.9627  134.8464  154.5773 C.3     1  UNL1        0.0910
     31 C         142.7339  136.2909  154.9104 C.3     1  UNL1        0.0229
     32 C         143.4942  132.4192  155.3365 C.2     1  UNL1        0.0609
     33 S         144.5598  131.6439  156.0532 S.2     1  UNL1       -0.0395
     34 C         142.6576  131.7499  154.2867 C.3     1  UNL1        0.0426
     35 C         141.1901  131.5417  154.5174 C.3     1  UNL1        0.0066
     36 C         143.2884  131.2888  153.0064 C.3     1  UNL1        0.0066
@<TRIPOS>BOND
     1    21    22    1
     2    22    11    1
     3    11    12   ar
     4    12    13   ar
     5    13    14    1
     6    13    15   ar
     7    15    16    1
     8    15    17   ar
     9    17    18   ar
    10    18     7    1
    11     7     8    2
    12     7     9   am
    13     1     9    1
    14     1     2    1
    15     2     3    1
    16     3     4    1
    17     4    25    1
    18    25    26    1
    19    26    27    1
    20    27    28    1
    21    28    29    1
    22    29    32    1
    23    32    33    2
    24    32    34    1
    25    34    35    1
    26    34    36    1
    27    29    30    1
    28    30    31    1
    29     4     5    1
    30     5     6    1
    31     6    23    1
    32    23    24    1
    33    18    11   ar
    34     6     1    1
    35    31    26    1
    36    14    19    1
    37    14    20    1
    38     9    10    1
