@<TRIPOS>MOLECULE
*****
 34 37 0 0 0
SMALL
GASTEIGER

@<TRIPOS>ATOM
      1 C         141.1416  143.3455  165.5553 C.ar    1  UNL1        0.1472
      2 C         142.2086  143.5953  164.5309 C.ar    1  UNL1        0.0372
      3 C         141.9091  144.4368  163.3259 C.ar    1  UNL1       -0.0007
      4 C         140.5427  145.0286  163.1452 C.ar    1  UNL1       -0.0129
      5 C         139.4758  144.7789  164.1695 C.ar    1  UNL1       -0.0007
      6 C         139.7752  143.9373  165.3745 C.ar    1  UNL1        0.0372
      7 O         141.4411  142.5039  166.7602 O.3     1  UNL1       -0.4360
      8 C         139.0972  138.4405  164.0686 C.ar    1  UNL1        0.1739
      9 C         138.6335  138.3201  165.4900 C.ar    1  UNL1        0.0593
     10 C         139.1035  139.3059  166.5183 C.ar    1  UNL1        0.0908
     11 N         138.6398  139.1855  167.9397 N.ar    1  UNL1       -0.2237
     12 C         139.1098  140.1712  168.9679 C.ar    1  UNL1        0.2015
     13 N         140.0436  141.2774  168.5748 N.ar    1  UNL1       -0.1890
     14 C         140.5073  141.3977  167.1534 C.ar    1  UNL1        0.2325
     15 C         140.0373  140.4120  166.1251 C.ar    1  UNL1        0.0745
     16 C         140.5010  140.5324  164.7037 C.ar    1  UNL1        0.0462
     17 C         140.0310  139.5466  163.6754 C.ar    1  UNL1        0.1726
     18 C         137.8318  137.9253  161.8587 C.3     1  UNL1        0.2526
     19 O         138.6272  137.4547  163.0402 O.3     1  UNL1       -0.4683
     20 O         140.4947  139.6670  162.2539 O.3     1  UNL1       -0.4684
     21 C         140.6886  141.0220  161.6405 C.3     1  UNL1        0.2526
     22 C         140.2433  145.8703  161.9402 C.3     1  UNL1        0.1117
     23 C         140.4716  145.3182  160.5643 C.2     1  UNL1        0.2306
     24 O         139.4404  144.4318  159.9311 O.2     1  UNL1       -0.2744
     25 N         141.7312  145.6525  159.8216 N.am    1  UNL1       -0.2812
     26 H         142.4080  146.2343  160.2372 H       1  UNL1        0.1550
     27 C         141.9596  145.1005  158.4457 C.ar    1  UNL1        0.0905
     28 C         142.4199  143.7109  158.1184 C.ar    1  UNL1        0.1363
     29 N         142.5126  143.5928  156.6259 N.ar    1  UNL1       -0.1664
     30 N         142.1095  144.9094  156.0308 N.ar    1  UNL1       -0.2500
     31 C         141.7678  145.8412  157.1554 C.ar    1  UNL1        0.1112
     32 C         142.0574  145.2367  154.5678 C.3     1  UNL1        0.1054
     33 C         140.7687  145.6857  153.9453 C.3     1  UNL1        0.0263
     34 C         143.2940  145.1149  153.7275 C.3     1  UNL1        0.0263
@<TRIPOS>BOND
     1    18    19    1
     2    19     8    1
     3     8     9   ar
     4     9    10   ar
     5    10    11   ar
     6    11    12   ar
     7    12    13   ar
     8    13    14   ar
     9    14     7    1
    10     7     1    1
    11     1     2   ar
    12     2     3   ar
    13     3     4   ar
    14     4    22    1
    15    22    23    1
    16    23    24    2
    17    23    25   am
    18    25    27    1
    19    27    28   ar
    20    28    29   ar
    21    29    30   ar
    22    30    32    1
    23    32    33    1
    24    32    34    1
    25    30    31   ar
    26     4     5   ar
    27     5     6   ar
    28    14    15   ar
    29    15    16   ar
    30    16    17   ar
    31    17    20    1
    32    20    21    1
    33    17     8   ar
    34    15    10   ar
    35     6     1   ar
    36    31    27   ar
    37    25    26    1
@<TRIPOS>MOLECULE
*****
 34 37 0 0 0
SMALL
GASTEIGER

@<TRIPOS>ATOM
      1 C         141.9259  138.4047  159.2464 C.ar    1  UNL1        0.1472
      2 C         140.5830  138.7555  158.6772 C.ar    1  UNL1        0.0372
      3 C         139.3669  138.7315  159.5549 C.ar    1  UNL1       -0.0007
      4 C         139.4935  138.3566  161.0018 C.ar    1  UNL1       -0.0129
      5 C         140.8362  138.0057  161.5710 C.ar    1  UNL1       -0.0007
      6 C         142.0525  138.0298  160.6932 C.ar    1  UNL1        0.0372
      7 O         143.1420  138.4288  158.3687 O.3     1  UNL1       -0.4360
      8 C         142.7453  134.1724  155.0557 C.ar    1  UNL1        0.1739
      9 C         142.6856  135.3885  154.1796 C.ar    1  UNL1        0.0593
     10 C         142.7699  136.7567  154.7888 C.ar    1  UNL1        0.0908
     11 N         142.7102  137.9727  153.9127 N.ar    1  UNL1       -0.2237
     12 C         142.7945  139.3408  154.5219 C.ar    1  UNL1        0.2015
     13 N         142.9384  139.4928  156.0073 N.ar    1  UNL1       -0.1890
     14 C         142.9981  138.2768  156.8833 C.ar    1  UNL1        0.2325
     15 C         142.9138  136.9087  156.2741 C.ar    1  UNL1        0.0745
     16 C         142.9735  135.6925  157.1502 C.ar    1  UNL1        0.0462
     17 C         142.8892  134.3244  156.5410 C.ar    1  UNL1        0.1726
     18 C         141.3946  132.0087  154.5617 C.3     1  UNL1        0.2526
     19 O         142.6610  132.8042  154.4464 O.3     1  UNL1       -0.4683
     20 O         142.9489  133.1083  157.4171 O.3     1  UNL1       -0.4684
     21 C         144.1909  132.2679  157.4500 C.3     1  UNL1        0.2526
     22 C         138.2773  138.3325  161.8795 C.3     1  UNL1        0.1117
     23 C         138.3402  138.9058  163.2642 C.2     1  UNL1        0.2306
     24 O         138.1424  140.3775  163.4762 O.2     1  UNL1       -0.2744
     25 N         138.6009  138.0075  164.4367 N.am    1  UNL1       -0.2812
     26 H         138.7307  137.0416  164.2975 H       1  UNL1        0.1550
     27 C         138.6638  138.5808  165.8215 C.ar    1  UNL1        0.0905
     28 C         137.6773  138.3332  166.9239 C.ar    1  UNL1        0.1363
     29 N         138.1281  139.1018  168.1306 N.ar    1  UNL1       -0.1664
     30 N         139.3933  139.8245  167.7739 N.ar    1  UNL1       -0.2500
     31 C         139.7243  139.5025  166.3468 C.ar    1  UNL1        0.1112
     32 C         140.1878  140.7131  168.6844 C.3     1  UNL1        0.1054
     33 C         140.7192  142.0216  168.1792 C.3     1  UNL1        0.0263
     34 C         140.4509  140.2932  170.1002 C.3     1  UNL1        0.0263
@<TRIPOS>BOND
     1    18    19    1
     2    19     8    1
     3     8     9   ar
     4     9    10   ar
     5    10    11   ar
     6    11    12   ar
     7    12    13   ar
     8    13    14   ar
     9    14     7    1
    10     7     1    1
    11     1     2   ar
    12     2     3   ar
    13     3     4   ar
    14     4    22    1
    15    22    23    1
    16    23    24    2
    17    23    25   am
    18    25    27    1
    19    27    28   ar
    20    28    29   ar
    21    29    30   ar
    22    30    32    1
    23    32    33    1
    24    32    34    1
    25    30    31   ar
    26     4     5   ar
    27     5     6   ar
    28    14    15   ar
    29    15    16   ar
    30    16    17   ar
    31    17    20    1
    32    20    21    1
    33    17     8   ar
    34    15    10   ar
    35     6     1   ar
    36    31    27   ar
    37    25    26    1
@<TRIPOS>MOLECULE
*****
 34 37 0 0 0
SMALL
GASTEIGER

@<TRIPOS>ATOM
      1 C         138.9239  142.0906  159.0389 C.ar    1  UNL1        0.1472
      2 C         138.8614  143.0989  157.9301 C.ar    1  UNL1        0.0372
      3 C         138.0327  142.8224  156.7108 C.ar    1  UNL1       -0.0007
      4 C         137.2665  141.5376  156.6002 C.ar    1  UNL1       -0.0129
      5 C         137.3290  140.5293  157.7090 C.ar    1  UNL1       -0.0007
      6 C         138.1577  140.8058  158.9284 C.ar    1  UNL1        0.0372
      7 O         139.7526  142.3671  160.2582 O.3     1  UNL1       -0.4360
      8 C         138.5504  139.3413  164.5767 C.ar    1  UNL1        0.1739
      9 C         138.0600  140.7242  164.8882 C.ar    1  UNL1        0.0593
     10 C         138.2380  141.8264  163.8864 C.ar    1  UNL1        0.0908
     11 N         137.7476  143.2093  164.1979 N.ar    1  UNL1       -0.2237
     12 C         137.9255  144.3115  163.1961 C.ar    1  UNL1        0.2015
     13 N         138.5938  144.0307  161.8829 N.ar    1  UNL1       -0.1890
     14 C         139.0842  142.6478  161.5715 C.ar    1  UNL1        0.2325
     15 C         138.9063  141.5457  162.5732 C.ar    1  UNL1        0.0745
     16 C         139.3967  140.1627  162.2618 C.ar    1  UNL1        0.0462
     17 C         139.2188  139.0605  163.2635 C.ar    1  UNL1        0.1726
     18 C         137.7711  138.5351  166.9204 C.3     1  UNL1        0.2526
     19 O         138.3725  138.2390  165.5785 O.3     1  UNL1       -0.4683
     20 O         139.7092  137.6775  162.9521 O.3     1  UNL1       -0.4684
     21 C         141.1816  137.3931  162.9215 C.3     1  UNL1        0.2526
     22 C         136.4378  141.2611  155.3808 C.3     1  UNL1        0.1117
     23 C         135.0482  140.7154  155.5263 C.2     1  UNL1        0.2306
     24 O         134.8138  139.2350  155.4680 O.2     1  UNL1       -0.2744
     25 N         133.8930  141.6502  155.7301 N.am    1  UNL1       -0.2812
     26 H         134.0468  142.6219  155.7683 H       1  UNL1        0.1550
     27 C         132.5033  141.1046  155.8756 C.ar    1  UNL1        0.0905
     28 C         131.2886  141.5760  155.1324 C.ar    1  UNL1        0.1363
     29 N         130.1190  140.7545  155.5873 N.ar    1  UNL1       -0.1664
     30 N         130.6107  139.7753  156.6118 N.ar    1  UNL1       -0.2500
     31 C         132.0843  139.9917  156.7899 C.ar    1  UNL1        0.1112
     32 C         129.7755  138.7583  157.3316 C.3     1  UNL1        0.1054
     33 C         129.2413  137.5675  156.5923 C.3     1  UNL1        0.0263
     34 C         129.4745  138.9321  158.7908 C.3     1  UNL1        0.0263
@<TRIPOS>BOND
     1    18    19    1
     2    19     8    1
     3     8     9   ar
     4     9    10   ar
     5    10    11   ar
     6    11    12   ar
     7    12    13   ar
     8    13    14   ar
     9    14     7    1
    10     7     1    1
    11     1     2   ar
    12     2     3   ar
    13     3     4   ar
    14     4    22    1
    15    22    23    1
    16    23    24    2
    17    23    25   am
    18    25    27    1
    19    27    28   ar
    20    28    29   ar
    21    29    30   ar
    22    30    32    1
    23    32    33    1
    24    32    34    1
    25    30    31   ar
    26     4     5   ar
    27     5     6   ar
    28    14    15   ar
    29    15    16   ar
    30    16    17   ar
    31    17    20    1
    32    20    21    1
    33    17     8   ar
    34    15    10   ar
    35     6     1   ar
    36    31    27   ar
    37    25    26    1
@<TRIPOS>MOLECULE
*****
 34 37 0 0 0
SMALL
GASTEIGER

@<TRIPOS>ATOM
      1 C         141.3551  138.2396  158.5086 C.ar    1  UNL1        0.1472
      2 C         142.6871  137.5549  158.5929 C.ar    1  UNL1        0.0372
      3 C         143.0800  136.5480  157.5528 C.ar    1  UNL1       -0.0007
      4 C         142.1410  136.2258  156.4284 C.ar    1  UNL1       -0.0129
      5 C         140.8090  136.9105  156.3440 C.ar    1  UNL1       -0.0007
      6 C         140.4161  137.9174  157.3842 C.ar    1  UNL1        0.0372
      7 O         140.9623  139.2465  159.5487 O.3     1  UNL1       -0.4360
      8 C         142.4348  138.3482  164.6746 C.ar    1  UNL1        0.1739
      9 C         140.9645  138.0595  164.6075 C.ar    1  UNL1        0.0593
     10 C         140.2286  138.2119  163.3092 C.ar    1  UNL1        0.0908
     11 N         138.7583  137.9231  163.2421 N.ar    1  UNL1       -0.2237
     12 C         138.0225  138.0755  161.9439 C.ar    1  UNL1        0.2015
     13 N         138.7572  138.5166  160.7127 N.ar    1  UNL1       -0.1890
     14 C         140.2276  138.8054  160.7798 C.ar    1  UNL1        0.2325
     15 C         140.9633  138.6530  162.0781 C.ar    1  UNL1        0.0745
     16 C         142.4338  138.9417  162.1452 C.ar    1  UNL1        0.0462
     17 C         143.1695  138.7893  163.4434 C.ar    1  UNL1        0.1726
     18 C         142.8690  139.1160  167.1184 C.3     1  UNL1        0.2526
     19 O         143.1706  138.1958  165.9728 O.3     1  UNL1       -0.4683
     20 O         144.6400  139.0780  163.5106 O.3     1  UNL1       -0.4684
     21 C         145.1186  140.4516  163.8769 C.3     1  UNL1        0.2526
     22 C         142.5339  135.2189  155.3883 C.3     1  UNL1        0.1117
     23 C         142.7560  133.7872  155.7766 C.2     1  UNL1        0.2306
     24 O         141.5832  132.8739  155.9772 O.2     1  UNL1       -0.2744
     25 N         144.1510  133.2688  155.9642 N.am    1  UNL1       -0.2812
     26 H         144.9208  133.8683  155.8325 H       1  UNL1        0.1550
     27 C         144.3732  131.8370  156.3525 C.ar    1  UNL1        0.0905
     28 C         144.7403  130.7182  155.4233 C.ar    1  UNL1        0.1363
     29 N         144.8612  129.4625  156.2347 N.ar    1  UNL1       -0.1664
     30 N         144.5689  129.8052  157.6655 N.ar    1  UNL1       -0.2500
     31 C         144.2673  131.2727  157.7383 C.ar    1  UNL1        0.1112
     32 C         144.5768  128.8483  158.8207 C.3     1  UNL1        0.1054
     33 C         145.8709  128.2575  159.2962 C.3     1  UNL1        0.0263
     34 C         143.2906  128.4823  159.5002 C.3     1  UNL1        0.0263
@<TRIPOS>BOND
     1    18    19    1
     2    19     8    1
     3     8     9   ar
     4     9    10   ar
     5    10    11   ar
     6    11    12   ar
     7    12    13   ar
     8    13    14   ar
     9    14     7    1
    10     7     1    1
    11     1     2   ar
    12     2     3   ar
    13     3     4   ar
    14     4    22    1
    15    22    23    1
    16    23    24    2
    17    23    25   am
    18    25    27    1
    19    27    28   ar
    20    28    29   ar
    21    29    30   ar
    22    30    32    1
    23    32    33    1
    24    32    34    1
    25    30    31   ar
    26     4     5   ar
    27     5     6   ar
    28    14    15   ar
    29    15    16   ar
    30    16    17   ar
    31    17    20    1
    32    20    21    1
    33    17     8   ar
    34    15    10   ar
    35     6     1   ar
    36    31    27   ar
    37    25    26    1
@<TRIPOS>MOLECULE
*****
 34 37 0 0 0
SMALL
GASTEIGER

@<TRIPOS>ATOM
      1 C         144.7581  141.7062  161.0833 C.ar    1  UNL1        0.1472
      2 C         145.4317  142.0817  162.3700 C.ar    1  UNL1        0.0372
      3 C         145.3673  141.1557  163.5483 C.ar    1  UNL1       -0.0007
      4 C         144.6293  139.8543  163.4400 C.ar    1  UNL1       -0.0129
      5 C         143.9557  139.4789  162.1535 C.ar    1  UNL1       -0.0007
      6 C         144.0201  140.4048  160.9751 C.ar    1  UNL1        0.0372
      7 O         144.8225  142.6322  159.9050 O.3     1  UNL1       -0.4360
      8 C         140.0486  144.6970  161.3873 C.ar    1  UNL1        0.1739
      9 C         139.9684  144.4865  159.9044 C.ar    1  UNL1        0.0593
     10 C         141.1419  143.9177  159.1630 C.ar    1  UNL1        0.0908
     11 N         141.0616  143.7072  157.6800 N.ar    1  UNL1       -0.2237
     12 C         142.2350  143.1384  156.9387 C.ar    1  UNL1        0.2015
     13 N         143.4886  142.7801  157.6804 N.ar    1  UNL1       -0.1890
     14 C         143.5689  142.9905  159.1634 C.ar    1  UNL1        0.2325
     15 C         142.3955  143.5593  159.9047 C.ar    1  UNL1        0.0745
     16 C         142.4756  143.7698  161.3877 C.ar    1  UNL1        0.0462
     17 C         141.3022  144.3386  162.1290 C.ar    1  UNL1        0.1726
     18 C         137.9736  144.3601  162.9140 C.3     1  UNL1        0.2526
     19 O         138.8752  145.2658  162.1287 O.3     1  UNL1       -0.4683
     20 O         141.3824  144.5491  163.6120 O.3     1  UNL1       -0.4684
     21 C         142.3673  143.7659  164.4285 C.3     1  UNL1        0.2526
     22 C         144.5650  138.9284  164.6184 C.3     1  UNL1        0.1117
     23 C         143.6331  139.2254  165.7557 C.2     1  UNL1        0.2306
     24 O         143.6706  138.3824  166.9958 O.2     1  UNL1       -0.2744
     25 N         142.6638  140.3655  165.6528 N.am    1  UNL1       -0.2812
     26 H         142.6393  140.9188  164.8389 H       1  UNL1        0.1550
     27 C         141.7319  140.6627  166.7901 C.ar    1  UNL1        0.0905
     28 C         140.4166  139.9905  167.0508 C.ar    1  UNL1        0.1363
     29 N         139.8236  140.5965  168.2882 N.ar    1  UNL1       -0.1664
     30 N         140.7724  141.6433  168.7922 N.ar    1  UNL1       -0.2500
     31 C         141.9518  141.6842  167.8663 C.ar    1  UNL1        0.1112
     32 C         140.5762  142.4990  170.0084 C.3     1  UNL1        0.1054
     33 C         140.3424  143.9730  169.8586 C.3     1  UNL1        0.0263
     34 C         140.6139  141.8806  171.3745 C.3     1  UNL1        0.0263
@<TRIPOS>BOND
     1    18    19    1
     2    19     8    1
     3     8     9   ar
     4     9    10   ar
     5    10    11   ar
     6    11    12   ar
     7    12    13   ar
     8    13    14   ar
     9    14     7    1
    10     7     1    1
    11     1     2   ar
    12     2     3   ar
    13     3     4   ar
    14     4    22    1
    15    22    23    1
    16    23    24    2
    17    23    25   am
    18    25    27    1
    19    27    28   ar
    20    28    29   ar
    21    29    30   ar
    22    30    32    1
    23    32    33    1
    24    32    34    1
    25    30    31   ar
    26     4     5   ar
    27     5     6   ar
    28    14    15   ar
    29    15    16   ar
    30    16    17   ar
    31    17    20    1
    32    20    21    1
    33    17     8   ar
    34    15    10   ar
    35     6     1   ar
    36    31    27   ar
    37    25    26    1
@<TRIPOS>MOLECULE
*****
 34 37 0 0 0
SMALL
GASTEIGER

@<TRIPOS>ATOM
      1 C         138.5344  139.4862  165.9154 C.ar    1  UNL1        0.1472
      2 C         139.0137  138.1037  165.5851 C.ar    1  UNL1        0.0372
      3 C         139.0463  137.6422  164.1583 C.ar    1  UNL1       -0.0007
      4 C         138.5997  138.5631  163.0617 C.ar    1  UNL1       -0.0129
      5 C         138.1205  139.9455  163.3920 C.ar    1  UNL1       -0.0007
      6 C         138.0878  140.4072  164.8188 C.ar    1  UNL1        0.0372
      7 O         138.5018  139.9478  167.3422 O.3     1  UNL1       -0.4360
      8 C         143.0534  142.6222  166.1673 C.ar    1  UNL1        0.1739
      9 C         143.2461  142.0576  167.5436 C.ar    1  UNL1        0.0593
     10 C         142.1564  141.2478  168.1814 C.ar    1  UNL1        0.0908
     11 N         142.3491  140.6833  169.5577 N.ar    1  UNL1       -0.2237
     12 C         141.2593  139.8735  170.1954 C.ar    1  UNL1        0.2015
     13 N         139.9769  139.6284  169.4569 N.ar    1  UNL1       -0.1890
     14 C         139.7842  140.1930  168.0807 C.ar    1  UNL1        0.2325
     15 C         140.8740  141.0027  167.4429 C.ar    1  UNL1        0.0745
     16 C         140.6813  141.5673  166.0666 C.ar    1  UNL1        0.0462
     17 C         141.7710  142.3770  165.4289 C.ar    1  UNL1        0.1726
     18 C         145.0258  142.8123  164.4869 C.3     1  UNL1        0.2526
     19 O         144.1432  143.4320  165.5295 O.3     1  UNL1       -0.4683
     20 O         141.5784  142.9417  164.0525 O.3     1  UNL1       -0.4684
     21 C         141.0790  144.3457  163.8810 C.3     1  UNL1        0.2526
     22 C         138.6323  138.1014  161.6349 C.3     1  UNL1        0.1117
     23 C         139.9263  138.1005  160.8763 C.2     1  UNL1        0.2306
     24 O         141.1725  137.5684  161.5197 O.2     1  UNL1       -0.2744
     25 N         139.9742  138.6316  159.4743 N.am    1  UNL1       -0.2812
     26 H         139.1563  138.9809  159.0521 H       1  UNL1        0.1550
     27 C         141.2682  138.6307  158.7157 C.ar    1  UNL1        0.0905
     28 C         142.5275  139.3388  159.1194 C.ar    1  UNL1        0.1363
     29 N         143.5677  139.0672  158.0734 N.ar    1  UNL1       -0.1664
     30 N         142.9513  138.1913  157.0231 N.ar    1  UNL1       -0.2500
     31 C         141.5302  137.9216  157.4201 C.ar    1  UNL1        0.1112
     32 C         143.6359  137.6758  155.7921 C.3     1  UNL1        0.1054
     33 C         143.9404  138.6081  154.6571 C.3     1  UNL1        0.0263
     34 C         144.0160  136.2279  155.6960 C.3     1  UNL1        0.0263
@<TRIPOS>BOND
     1    18    19    1
     2    19     8    1
     3     8     9   ar
     4     9    10   ar
     5    10    11   ar
     6    11    12   ar
     7    12    13   ar
     8    13    14   ar
     9    14     7    1
    10     7     1    1
    11     1     2   ar
    12     2     3   ar
    13     3     4   ar
    14     4    22    1
    15    22    23    1
    16    23    24    2
    17    23    25   am
    18    25    27    1
    19    27    28   ar
    20    28    29   ar
    21    29    30   ar
    22    30    32    1
    23    32    33    1
    24    32    34    1
    25    30    31   ar
    26     4     5   ar
    27     5     6   ar
    28    14    15   ar
    29    15    16   ar
    30    16    17   ar
    31    17    20    1
    32    20    21    1
    33    17     8   ar
    34    15    10   ar
    35     6     1   ar
    36    31    27   ar
    37    25    26    1
@<TRIPOS>MOLECULE
*****
 34 37 0 0 0
SMALL
GASTEIGER

@<TRIPOS>ATOM
      1 C         139.9052  138.4775  160.3450 C.ar    1  UNL1        0.1472
      2 C         138.5025  138.5921  160.8640 C.ar    1  UNL1        0.0372
      3 C         138.2091  138.2949  162.3046 C.ar    1  UNL1       -0.0007
      4 C         139.3185  137.8832  163.2265 C.ar    1  UNL1       -0.0129
      5 C         140.7212  137.7687  162.7076 C.ar    1  UNL1       -0.0007
      6 C         141.0146  138.0658  161.2669 C.ar    1  UNL1        0.0372
      7 O         140.1986  138.7747  158.9044 O.3     1  UNL1       -0.4360
      8 C         140.1409  144.1128  159.7711 C.ar    1  UNL1        0.1739
      9 C         141.3969  143.8298  159.0015 C.ar    1  UNL1        0.0593
     10 C         141.7254  142.4245  158.5924 C.ar    1  UNL1        0.0908
     11 N         142.9814  142.1416  157.8228 N.ar    1  UNL1       -0.2237
     12 C         143.3098  140.7363  157.4138 C.ar    1  UNL1        0.2015
     13 N         142.3822  139.6140  157.7743 N.ar    1  UNL1       -0.1890
     14 C         141.1262  139.8970  158.5439 C.ar    1  UNL1        0.2325
     15 C         140.7978  141.3022  158.9529 C.ar    1  UNL1        0.0745
     16 C         139.5417  141.5852  159.7225 C.ar    1  UNL1        0.0462
     17 C         139.2133  142.9905  160.1316 C.ar    1  UNL1        0.1726
     18 C         140.0556  145.9647  161.5913 C.3     1  UNL1        0.2526
     19 O         139.8124  145.5181  160.1802 O.3     1  UNL1       -0.4683
     20 O         137.9572  143.2735  160.9012 O.3     1  UNL1       -0.4684
     21 C         137.8217  142.7970  162.3171 C.3     1  UNL1        0.2526
     22 C         139.0251  137.5860  164.6672 C.3     1  UNL1        0.1117
     23 C         139.2893  138.6251  165.7162 C.2     1  UNL1        0.2306
     24 O         138.3655  138.7571  166.8906 O.2     1  UNL1       -0.2744
     25 N         140.4773  139.5322  165.5908 N.am    1  UNL1       -0.2812
     26 H         141.0836  139.4456  164.8200 H       1  UNL1        0.1550
     27 C         140.7416  140.5714  166.6398 C.ar    1  UNL1        0.0905
     28 C         140.1520  141.9499  166.6836 C.ar    1  UNL1        0.1363
     29 N         140.6879  142.6449  167.9001 N.ar    1  UNL1       -0.1664
     30 N         141.6088  141.6958  168.6081 N.ar    1  UNL1       -0.2500
     31 C         141.6420  140.4144  167.8293 C.ar    1  UNL1        0.1112
     32 C         142.3639  141.9787  169.8730 C.3     1  UNL1        0.1054
     33 C         141.6786  141.8478  171.2008 C.3     1  UNL1        0.0263
     34 C         143.8044  142.3923  169.8100 C.3     1  UNL1        0.0263
@<TRIPOS>BOND
     1    18    19    1
     2    19     8    1
     3     8     9   ar
     4     9    10   ar
     5    10    11   ar
     6    11    12   ar
     7    12    13   ar
     8    13    14   ar
     9    14     7    1
    10     7     1    1
    11     1     2   ar
    12     2     3   ar
    13     3     4   ar
    14     4    22    1
    15    22    23    1
    16    23    24    2
    17    23    25   am
    18    25    27    1
    19    27    28   ar
    20    28    29   ar
    21    29    30   ar
    22    30    32    1
    23    32    33    1
    24    32    34    1
    25    30    31   ar
    26     4     5   ar
    27     5     6   ar
    28    14    15   ar
    29    15    16   ar
    30    16    17   ar
    31    17    20    1
    32    20    21    1
    33    17     8   ar
    34    15    10   ar
    35     6     1   ar
    36    31    27   ar
    37    25    26    1
@<TRIPOS>MOLECULE
*****
 34 37 0 0 0
SMALL
GASTEIGER

@<TRIPOS>ATOM
      1 C         141.1984  144.6052  159.0065 C.ar    1  UNL1        0.1472
      2 C         140.2505  145.5979  159.6116 C.ar    1  UNL1        0.0372
      3 C         140.1886  145.7642  161.1010 C.ar    1  UNL1       -0.0007
      4 C         141.0747  144.9379  161.9854 C.ar    1  UNL1       -0.0129
      5 C         142.0226  143.9453  161.3803 C.ar    1  UNL1       -0.0007
      6 C         142.0844  143.7789  159.8908 C.ar    1  UNL1        0.0372
      7 O         141.2602  144.4389  157.5170 O.3     1  UNL1       -0.4360
      8 C         136.6952  141.8516  156.2068 C.ar    1  UNL1        0.1739
      9 C         136.6312  143.1827  155.5183 C.ar    1  UNL1        0.0593
     10 C         137.7565  144.1624  155.6737 C.ar    1  UNL1        0.0908
     11 N         137.6926  145.4935  154.9852 N.ar    1  UNL1       -0.2237
     12 C         138.8178  146.4730  155.1407 C.ar    1  UNL1        0.2015
     13 N         140.0070  146.1215  155.9846 N.ar    1  UNL1       -0.1890
     14 C         140.0710  144.7904  156.6731 C.ar    1  UNL1        0.2325
     15 C         138.9457  143.8108  156.5177 C.ar    1  UNL1        0.0745
     16 C         139.0096  142.4797  157.2062 C.ar    1  UNL1        0.0462
     17 C         137.8844  141.5001  157.0507 C.ar    1  UNL1        0.1726
     18 C         135.5861  139.8841  154.9227 C.3     1  UNL1        0.2526
     19 O         135.5699  140.8720  156.0514 O.3     1  UNL1       -0.4683
     20 O         137.9483  140.1689  157.7392 O.3     1  UNL1       -0.4684
     21 C         139.2400  139.6947  158.3363 C.3     1  UNL1        0.2526
     22 C         141.0128  145.1043  163.4749 C.3     1  UNL1        0.1117
     23 C         140.3594  144.0518  164.3206 C.2     1  UNL1        0.2306
     24 O         138.9115  144.1796  164.6911 O.2     1  UNL1       -0.2744
     25 N         141.1538  142.8716  164.7959 N.am    1  UNL1       -0.2812
     26 H         142.1041  142.7877  164.5527 H       1  UNL1        0.1550
     27 C         140.5003  141.8191  165.6416 C.ar    1  UNL1        0.0905
     28 C         140.4700  141.7861  167.1409 C.ar    1  UNL1        0.1363
     29 N         139.7134  140.5614  167.5624 N.ar    1  UNL1       -0.1664
     30 N         139.2762  139.8374  166.3236 N.ar    1  UNL1       -0.2500
     31 C         139.7625  140.6147  165.1365 C.ar    1  UNL1        0.1112
     32 C         138.4905  138.5604  166.2796 C.3     1  UNL1        0.1054
     33 C         137.3979  138.3173  167.2781 C.3     1  UNL1        0.0263
     34 C         138.7976  137.5264  165.2371 C.3     1  UNL1        0.0263
@<TRIPOS>BOND
     1    18    19    1
     2    19     8    1
     3     8     9   ar
     4     9    10   ar
     5    10    11   ar
     6    11    12   ar
     7    12    13   ar
     8    13    14   ar
     9    14     7    1
    10     7     1    1
    11     1     2   ar
    12     2     3   ar
    13     3     4   ar
    14     4    22    1
    15    22    23    1
    16    23    24    2
    17    23    25   am
    18    25    27    1
    19    27    28   ar
    20    28    29   ar
    21    29    30   ar
    22    30    32    1
    23    32    33    1
    24    32    34    1
    25    30    31   ar
    26     4     5   ar
    27     5     6   ar
    28    14    15   ar
    29    15    16   ar
    30    16    17   ar
    31    17    20    1
    32    20    21    1
    33    17     8   ar
    34    15    10   ar
    35     6     1   ar
    36    31    27   ar
    37    25    26    1
@<TRIPOS>MOLECULE
*****
 34 37 0 0 0
SMALL
GASTEIGER

@<TRIPOS>ATOM
      1 C         144.0165  139.9929  161.4210 C.ar    1  UNL1        0.1472
      2 C         143.9458  140.9428  160.2622 C.ar    1  UNL1        0.0372
      3 C         143.4287  140.4704  158.9358 C.ar    1  UNL1       -0.0007
      4 C         142.9824  139.0482  158.7681 C.ar    1  UNL1       -0.0129
      5 C         143.0531  138.0984  159.9268 C.ar    1  UNL1       -0.0007
      6 C         143.5702  138.5707  161.2533 C.ar    1  UNL1        0.0372
      7 O         144.5335  140.4652  162.7475 O.3     1  UNL1       -0.4360
      8 C         140.5908  143.6152  164.6923 C.ar    1  UNL1        0.1739
      9 C         140.7328  142.4798  165.6622 C.ar    1  UNL1        0.0593
     10 C         141.7540  141.4084  165.4185 C.ar    1  UNL1        0.0908
     11 N         141.8960  140.2731  166.3884 N.ar    1  UNL1       -0.2237
     12 C         142.9172  139.2018  166.1447 C.ar    1  UNL1        0.2015
     13 N         143.7963  139.2658  164.9310 N.ar    1  UNL1       -0.1890
     14 C         143.6544  140.4012  163.9611 C.ar    1  UNL1        0.2325
     15 C         142.6332  141.4725  164.2049 C.ar    1  UNL1        0.0745
     16 C         142.4911  142.6079  163.2349 C.ar    1  UNL1        0.0462
     17 C         141.4700  143.6792  163.4787 C.ar    1  UNL1        0.1726
     18 C         138.1090  144.3776  164.7902 C.3     1  UNL1        0.2526
     19 O         139.5695  144.6866  164.9360 O.3     1  UNL1       -0.4683
     20 O         141.3279  144.8147  162.5088 O.3     1  UNL1       -0.4684
     21 C         140.2389  144.7884  161.4776 C.3     1  UNL1        0.2526
     22 C         142.4653  138.5759  157.4415 C.3     1  UNL1        0.1117
     23 C         142.9930  137.3075  156.8394 C.2     1  UNL1        0.2306
     24 O         144.2621  137.3279  156.0400 O.2     1  UNL1       -0.2744
     25 N         142.2515  136.0186  157.0366 N.am    1  UNL1       -0.2812
     26 H         141.4186  136.0052  157.5613 H       1  UNL1        0.1550
     27 C         142.7792  134.7500  156.4345 C.ar    1  UNL1        0.0905
     28 C         142.7162  134.3693  154.9850 C.ar    1  UNL1        0.1363
     29 N         143.3605  133.0235  154.8309 N.ar    1  UNL1       -0.1664
     30 N         143.8217  132.5725  156.1851 N.ar    1  UNL1       -0.2500
     31 C         143.4624  133.6396  157.1762 C.ar    1  UNL1        0.1112
     32 C         144.5196  131.2812  156.4940 C.3     1  UNL1        0.1054
     33 C         144.8702  130.9387  157.9117 C.3     1  UNL1        0.0263
     34 C         144.8669  130.3325  155.3853 C.3     1  UNL1        0.0263
@<TRIPOS>BOND
     1    18    19    1
     2    19     8    1
     3     8     9   ar
     4     9    10   ar
     5    10    11   ar
     6    11    12   ar
     7    12    13   ar
     8    13    14   ar
     9    14     7    1
    10     7     1    1
    11     1     2   ar
    12     2     3   ar
    13     3     4   ar
    14     4    22    1
    15    22    23    1
    16    23    24    2
    17    23    25   am
    18    25    27    1
    19    27    28   ar
    20    28    29   ar
    21    29    30   ar
    22    30    32    1
    23    32    33    1
    24    32    34    1
    25    30    31   ar
    26     4     5   ar
    27     5     6   ar
    28    14    15   ar
    29    15    16   ar
    30    16    17   ar
    31    17    20    1
    32    20    21    1
    33    17     8   ar
    34    15    10   ar
    35     6     1   ar
    36    31    27   ar
    37    25    26    1
