@<TRIPOS>MOLECULE
*****
 33 37 0 0 0
SMALL
GASTEIGER

@<TRIPOS>ATOM
      1 C         139.6113  140.6356  167.9873 C.ar    1  UNL1        0.0328
      2 C         138.7206  139.6969  168.7457 C.ar    1  UNL1        0.1001
      3 N         137.8613  138.7155  168.0051 N.ar    1  UNL1       -0.2420
      4 C         137.8926  138.6730  166.5060 C.ar    1  UNL1        0.1078
      5 C         138.7833  139.6118  165.7476 C.ar    1  UNL1        0.1207
      6 C         139.6426  140.5931  166.4882 C.ar    1  UNL1        0.0583
      7 C         138.8147  139.5693  164.2485 C.2     1  UNL1        0.3780
      8 N         137.9287  140.3522  163.3255 N.2     1  UNL1       -0.0307
      9 C         138.3040  140.0032  161.9158 C.2     1  UNL1        0.2343
     10 C         137.7721  140.4657  160.5917 C.2     1  UNL1        0.0794
     11 C         138.3583  139.9295  159.3194 C.2     1  UNL1        0.1402
     12 F         137.8265  140.3921  157.9952 F       1  UNL1       -0.2044
     13 C         139.4762  138.9308  159.3711 C.2     1  UNL1        0.0125
     14 C         140.0081  138.4682  160.6952 C.3     1  UNL1        0.1060
     15 C         139.4219  139.0044  161.9675 C.2     1  UNL1        0.2179
     16 N         139.7375  138.7363  163.4092 N.2     1  UNL1       -0.0346
     17 N         140.5334  141.5319  165.7297 N.pl3   1  UNL1       -0.3071
     18 C         141.9248  141.1111  165.3596 C.3     1  UNL1        0.0921
     19 C         142.8155  142.0499  164.6011 C.3     1  UNL1        0.0369
     20 C         142.3149  143.4096  164.2128 C.3     1  UNL1        0.0542
     21 N         143.2056  144.3483  163.4544 N.3     1  UNL1       -0.3221
     22 C         140.9235  143.8304  164.5830 C.3     1  UNL1        0.0369
     23 C         140.0328  142.8916  165.3415 C.3     1  UNL1        0.0921
     24 H         144.1078  143.9021  163.2892 H       1  UNL1        0.1188
     25 H         143.3424  145.2007  163.9976 H       1  UNL1        0.1188
     26 C         144.1998  141.9419  170.0462 C.3     1  UNL1        0.0311
     27 C         142.7649  142.2701  169.7573 C.ar    1  UNL1       -0.0196
     28 C         142.1895  143.5797  170.2090 C.ar    1  UNL1        0.0254
     29 C         140.7546  143.9079  169.9201 C.ar    1  UNL1        0.1398
     30 F         140.1791  145.2173  170.3718 F       1  UNL1       -0.2042
     31 C         139.8952  142.9265  169.1795 C.ar    1  UNL1        0.0297
     32 C         140.4707  141.6170  168.7279 C.ar    1  UNL1        0.0046
     33 C         141.9055  141.2888  169.0167 C.ar    1  UNL1       -0.0040
@<TRIPOS>BOND
     1    26    27    1
     2    27    28   ar
     3    28    29   ar
     4    29    30    1
     5    29    31   ar
     6    31    32   ar
     7    32     1    1
     8     1     2   ar
     9     2     3   ar
    10     3     4   ar
    11     4     5   ar
    12     5     7    1
    13     7     8    2
    14     8     9    1
    15     9    10    2
    16    10    11    1
    17    11    12    1
    18    11    13    2
    19    13    14    1
    20    14    15    1
    21    15    16    2
    22     5     6   ar
    23     6    17    1
    24    17    18    1
    25    18    19    1
    26    19    20    1
    27    20    21    1
    28    20    22    1
    29    22    23    1
    30    32    33   ar
    31    33    27   ar
    32     6     1   ar
    33    23    17    1
    34    16     7    1
    35    15     9    1
    36    21    24    1
    37    21    25    1
@<TRIPOS>MOLECULE
*****
 33 37 0 0 0
SMALL
GASTEIGER

@<TRIPOS>ATOM
      1 C         139.6125  140.4481  167.9266 C.ar    1  UNL1        0.0328
      2 C         138.6653  139.5408  168.6544 C.ar    1  UNL1        0.1001
      3 N         137.7801  138.6068  167.8837 N.ar    1  UNL1       -0.2420
      4 C         137.8421  138.5801  166.3852 C.ar    1  UNL1        0.1078
      5 C         138.7892  139.4873  165.6574 C.ar    1  UNL1        0.1207
      6 C         139.6744  140.4213  166.4281 C.ar    1  UNL1        0.0583
      7 C         138.8512  139.4606  164.1590 C.2     1  UNL1        0.3780
      8 N         137.9698  140.2370  163.2260 N.2     1  UNL1       -0.0307
      9 C         138.3794  139.9090  161.8208 C.2     1  UNL1        0.2343
     10 C         137.8658  140.3754  160.4909 C.2     1  UNL1        0.0794
     11 C         138.4867  139.8626  159.2254 C.2     1  UNL1        0.1402
     12 F         137.9732  140.3290  157.8954 F       1  UNL1       -0.2044
     13 C         139.6212  138.8835  159.2898 C.2     1  UNL1        0.0125
     14 C         140.1348  138.4171  160.6197 C.3     1  UNL1        0.1060
     15 C         139.5139  138.9298  161.8852 C.2     1  UNL1        0.2179
     16 N         139.8055  138.6527  163.3303 N.2     1  UNL1       -0.0346
     17 N         140.6217  141.3286  165.7004 N.pl3   1  UNL1       -0.3071
     18 C         140.1979  142.7215  165.3395 C.3     1  UNL1        0.0921
     19 C         141.1451  143.6288  164.6118 C.3     1  UNL1        0.0369
     20 C         142.5161  143.1432  164.2449 C.3     1  UNL1        0.0542
     21 N         143.4633  144.0505  163.5171 N.3     1  UNL1       -0.3221
     22 C         142.9399  141.7503  164.6057 C.3     1  UNL1        0.0369
     23 C         141.9926  140.8430  165.3335 C.3     1  UNL1        0.0921
     24 H         143.0136  144.9515  163.3544 H       1  UNL1        0.1188
     25 H         143.7168  143.6306  162.6228 H       1  UNL1        0.1188
     26 C         140.3222  144.9644  170.3962 C.3     1  UNL1        0.0311
     27 C         140.8525  143.6403  169.9321 C.ar    1  UNL1       -0.0196
     28 C         142.2682  143.2502  170.2387 C.ar    1  UNL1        0.0254
     29 C         142.7985  141.9261  169.7746 C.ar    1  UNL1        0.1398
     30 F         144.2141  141.5360  170.0812 F       1  UNL1       -0.2042
     31 C         141.9133  140.9920  169.0039 C.ar    1  UNL1        0.0297
     32 C         140.4977  141.3821  168.6973 C.ar    1  UNL1        0.0046
     33 C         139.9674  142.7063  169.1614 C.ar    1  UNL1       -0.0040
@<TRIPOS>BOND
     1    26    27    1
     2    27    28   ar
     3    28    29   ar
     4    29    30    1
     5    29    31   ar
     6    31    32   ar
     7    32     1    1
     8     1     2   ar
     9     2     3   ar
    10     3     4   ar
    11     4     5   ar
    12     5     7    1
    13     7     8    2
    14     8     9    1
    15     9    10    2
    16    10    11    1
    17    11    12    1
    18    11    13    2
    19    13    14    1
    20    14    15    1
    21    15    16    2
    22     5     6   ar
    23     6    17    1
    24    17    18    1
    25    18    19    1
    26    19    20    1
    27    20    21    1
    28    20    22    1
    29    22    23    1
    30    32    33   ar
    31    33    27   ar
    32     6     1   ar
    33    23    17    1
    34    16     7    1
    35    15     9    1
    36    21    24    1
    37    21    25    1
@<TRIPOS>MOLECULE
*****
 33 37 0 0 0
SMALL
GASTEIGER

@<TRIPOS>ATOM
      1 C         141.9289  140.0071  167.2690 C.ar    1  UNL1        0.0328
      2 C         142.9526  139.0126  167.7306 C.ar    1  UNL1        0.1001
      3 N         143.8505  138.3427  166.7331 N.ar    1  UNL1       -0.2420
      4 C         143.7247  138.6673  165.2740 C.ar    1  UNL1        0.1078
      5 C         142.7010  139.6618  164.8125 C.ar    1  UNL1        0.1207
      6 C         141.8032  140.3317  165.8100 C.ar    1  UNL1        0.0583
      7 C         142.5752  139.9864  163.3534 C.2     1  UNL1        0.3780
      8 N         143.4515  140.9273  162.5808 N.2     1  UNL1       -0.0307
      9 C         142.9689  140.9495  161.1607 C.2     1  UNL1        0.2343
     10 C         143.4472  141.6942  159.9497 C.2     1  UNL1        0.0794
     11 C         142.7511  141.5118  158.6336 C.2     1  UNL1        0.1402
     12 F         143.2294  142.2565  157.4225 F       1  UNL1       -0.2044
     13 C         141.5766  140.5847  158.5286 C.2     1  UNL1        0.0125
     14 C         141.0982  139.8400  159.7396 C.3     1  UNL1        0.1060
     15 C         141.7944  140.0224  161.0557 C.2     1  UNL1        0.2179
     16 N         141.5511  139.4272  162.4109 N.2     1  UNL1       -0.0346
     17 N         140.7794  141.3262  165.3485 N.pl3   1  UNL1       -0.3071
     18 C         139.3721  140.8832  165.0779 C.3     1  UNL1        0.0921
     19 C         138.3484  141.8777  164.6164 C.3     1  UNL1        0.0369
     20 C         138.7320  143.3152  164.4254 C.3     1  UNL1        0.0542
     21 N         137.7083  144.3097  163.9639 N.3     1  UNL1       -0.3221
     22 C         140.1393  143.7582  164.6960 C.3     1  UNL1        0.0369
     23 C         141.1630  142.7637  165.1575 C.3     1  UNL1        0.0921
     24 H         136.8133  143.8390  163.8299 H       1  UNL1        0.1188
     25 H         138.0100  144.7239  163.0820 H       1  UNL1        0.1188
     26 C         140.6527  144.1866  170.0802 C.3     1  UNL1        0.0311
     27 C         140.3929  142.7668  169.6721 C.ar    1  UNL1       -0.0196
     28 C         139.2352  142.0169  170.2615 C.ar    1  UNL1        0.0254
     29 C         138.9754  140.5970  169.8534 C.ar    1  UNL1        0.1398
     30 F         137.8177  139.8471  170.4428 F       1  UNL1       -0.2042
     31 C         139.8733  139.9271  168.8559 C.ar    1  UNL1        0.0297
     32 C         141.0310  140.6770  168.2665 C.ar    1  UNL1        0.0046
     33 C         141.2908  142.0969  168.6746 C.ar    1  UNL1       -0.0040
@<TRIPOS>BOND
     1    26    27    1
     2    27    28   ar
     3    28    29   ar
     4    29    30    1
     5    29    31   ar
     6    31    32   ar
     7    32     1    1
     8     1     2   ar
     9     2     3   ar
    10     3     4   ar
    11     4     5   ar
    12     5     7    1
    13     7     8    2
    14     8     9    1
    15     9    10    2
    16    10    11    1
    17    11    12    1
    18    11    13    2
    19    13    14    1
    20    14    15    1
    21    15    16    2
    22     5     6   ar
    23     6    17    1
    24    17    18    1
    25    18    19    1
    26    19    20    1
    27    20    21    1
    28    20    22    1
    29    22    23    1
    30    32    33   ar
    31    33    27   ar
    32     6     1   ar
    33    23    17    1
    34    16     7    1
    35    15     9    1
    36    21    24    1
    37    21    25    1
@<TRIPOS>MOLECULE
*****
 33 37 0 0 0
SMALL
GASTEIGER

@<TRIPOS>ATOM
      1 C         139.7568  139.8856  167.2391 C.ar    1  UNL1        0.0328
      2 C         138.4803  139.1879  167.6049 C.ar    1  UNL1        0.1001
      3 N         137.7118  138.4340  166.5605 N.ar    1  UNL1       -0.2420
      4 C         138.2197  138.3778  165.1502 C.ar    1  UNL1        0.1078
      5 C         139.4961  139.0755  164.7844 C.ar    1  UNL1        0.1207
      6 C         140.2647  139.8294  165.8288 C.ar    1  UNL1        0.0583
      7 C         140.0040  139.0193  163.3741 C.2     1  UNL1        0.3780
      8 N         141.1050  138.1352  162.8680 N.2     1  UNL1       -0.0307
      9 C         141.2815  138.4068  161.4034 C.2     1  UNL1        0.2343
     10 C         142.2173  137.8321  160.3817 C.2     1  UNL1        0.0794
     11 C         142.1612  138.3094  158.9608 C.2     1  UNL1        0.1402
     12 F         143.0970  137.7347  157.9390 F       1  UNL1       -0.2044
     13 C         141.1692  139.3614  158.5617 C.2     1  UNL1        0.0125
     14 C         140.2334  139.9361  159.5834 C.3     1  UNL1        0.1060
     15 C         140.2896  139.4588  161.0043 C.2     1  UNL1        0.2179
     16 N         139.5000  139.8373  162.2222 N.2     1  UNL1       -0.0346
     17 N         141.5412  140.5272  165.4630 N.pl3   1  UNL1       -0.3071
     18 C         141.5259  141.9871  165.1190 C.3     1  UNL1        0.0921
     19 C         142.8023  142.6849  164.7532 C.3     1  UNL1        0.0369
     20 C         144.0941  141.9227  164.7314 C.3     1  UNL1        0.0542
     21 N         145.3705  142.6204  164.3656 N.3     1  UNL1       -0.3221
     22 C         144.1094  140.4627  165.0753 C.3     1  UNL1        0.0369
     23 C         142.8329  139.7650  165.4412 C.3     1  UNL1        0.0921
     24 H         145.1760  143.6011  164.1634 H       1  UNL1        0.1188
     25 H         145.7761  142.1773  163.5412 H       1  UNL1        0.1188
     26 C         140.5442  144.2213  169.9926 C.3     1  UNL1        0.0311
     27 C         140.9191  142.8074  169.6603 C.ar    1  UNL1       -0.0196
     28 C         142.0626  142.1475  170.3724 C.ar    1  UNL1        0.0254
     29 C         142.4374  140.7337  170.0401 C.ar    1  UNL1        0.1398
     30 F         143.5809  140.0737  170.7521 F       1  UNL1       -0.2042
     31 C         141.6688  139.9797  168.9956 C.ar    1  UNL1        0.0297
     32 C         140.5254  140.6396  168.2836 C.ar    1  UNL1        0.0046
     33 C         140.1505  142.0535  168.6159 C.ar    1  UNL1       -0.0040
@<TRIPOS>BOND
     1    26    27    1
     2    27    28   ar
     3    28    29   ar
     4    29    30    1
     5    29    31   ar
     6    31    32   ar
     7    32     1    1
     8     1     2   ar
     9     2     3   ar
    10     3     4   ar
    11     4     5   ar
    12     5     7    1
    13     7     8    2
    14     8     9    1
    15     9    10    2
    16    10    11    1
    17    11    12    1
    18    11    13    2
    19    13    14    1
    20    14    15    1
    21    15    16    2
    22     5     6   ar
    23     6    17    1
    24    17    18    1
    25    18    19    1
    26    19    20    1
    27    20    21    1
    28    20    22    1
    29    22    23    1
    30    32    33   ar
    31    33    27   ar
    32     6     1   ar
    33    23    17    1
    34    16     7    1
    35    15     9    1
    36    21    24    1
    37    21    25    1
@<TRIPOS>MOLECULE
*****
 33 37 0 0 0
SMALL
GASTEIGER

@<TRIPOS>ATOM
      1 C         140.7651  139.1241  162.3765 C.ar    1  UNL1        0.0328
      2 C         140.8220  137.6348  162.5454 C.ar    1  UNL1        0.1001
      3 N         141.0599  137.0425  163.9028 N.ar    1  UNL1       -0.2420
      4 C         141.2409  137.9396  165.0913 C.ar    1  UNL1        0.1078
      5 C         141.1839  139.4289  164.9224 C.ar    1  UNL1        0.1207
      6 C         140.9460  140.0212  163.5650 C.ar    1  UNL1        0.0583
      7 C         141.3648  140.3260  166.1109 C.2     1  UNL1        0.3780
      8 N         142.6445  140.5480  166.8613 N.2     1  UNL1       -0.0307
      9 C         142.3685  141.5178  167.9718 C.2     1  UNL1        0.2343
     10 C         143.2503  142.1060  169.0331 C.2     1  UNL1        0.0794
     11 C         142.6818  143.0716  170.0303 C.2     1  UNL1        0.1402
     12 F         143.5637  143.6598  171.0916 F       1  UNL1       -0.2044
     13 C         141.2315  143.4491  169.9662 C.2     1  UNL1        0.0125
     14 C         140.3497  142.8609  168.9049 C.3     1  UNL1        0.1060
     15 C         140.9181  141.8953  167.9077 C.2     1  UNL1        0.2179
     16 N         140.2979  141.1587  166.7576 N.2     1  UNL1       -0.0346
     17 N         140.8890  141.5106  163.3960 N.pl3   1  UNL1       -0.3071
     18 C         139.5659  142.2170  163.4109 C.3     1  UNL1        0.0921
     19 C         139.5089  143.7063  163.2420 C.3     1  UNL1        0.0369
     20 C         140.7750  144.4893  163.0580 C.3     1  UNL1        0.0542
     21 N         140.7180  145.9787  162.8890 N.3     1  UNL1       -0.3221
     22 C         142.0982  143.7829  163.0431 C.3     1  UNL1        0.0369
     23 C         142.1552  142.2935  163.2121 C.3     1  UNL1        0.0921
     24 H         139.7467  146.2879  162.9244 H       1  UNL1        0.1188
     25 H         141.1238  146.2345  161.9889 H       1  UNL1        0.1188
     26 C         142.6122  141.2059  157.9885 C.3     1  UNL1        0.0311
     27 C         141.4507  140.7573  158.8251 C.ar    1  UNL1       -0.0196
     28 C         140.0514  140.9010  158.3042 C.ar    1  UNL1        0.0254
     29 C         138.8900  140.4524  159.1407 C.ar    1  UNL1        0.1398
     30 F         137.4907  140.5961  158.6199 F       1  UNL1       -0.2042
     31 C         139.1279  139.8601  160.4982 C.ar    1  UNL1        0.0297
     32 C         140.5271  139.7164  161.0190 C.ar    1  UNL1        0.0046
     33 C         141.6886  140.1650  160.1825 C.ar    1  UNL1       -0.0040
@<TRIPOS>BOND
     1    26    27    1
     2    27    28   ar
     3    28    29   ar
     4    29    30    1
     5    29    31   ar
     6    31    32   ar
     7    32     1    1
     8     1     2   ar
     9     2     3   ar
    10     3     4   ar
    11     4     5   ar
    12     5     7    1
    13     7     8    2
    14     8     9    1
    15     9    10    2
    16    10    11    1
    17    11    12    1
    18    11    13    2
    19    13    14    1
    20    14    15    1
    21    15    16    2
    22     5     6   ar
    23     6    17    1
    24    17    18    1
    25    18    19    1
    26    19    20    1
    27    20    21    1
    28    20    22    1
    29    22    23    1
    30    32    33   ar
    31    33    27   ar
    32     6     1   ar
    33    23    17    1
    34    16     7    1
    35    15     9    1
    36    21    24    1
    37    21    25    1
@<TRIPOS>MOLECULE
*****
 33 37 0 0 0
SMALL
GASTEIGER

@<TRIPOS>ATOM
      1 C         139.5858  142.3454  161.8034 C.ar    1  UNL1        0.0328
      2 C         138.0887  142.4241  161.7539 C.ar    1  UNL1        0.1001
      3 N         137.2890  142.2980  163.0166 N.ar    1  UNL1       -0.2420
      4 C         137.9863  142.0931  164.3288 C.ar    1  UNL1        0.1078
      5 C         139.4834  142.0144  164.3782 C.ar    1  UNL1        0.1207
      6 C         140.2831  142.1405  163.1156 C.ar    1  UNL1        0.0583
      7 C         140.1807  141.8095  165.6904 C.2     1  UNL1        0.3780
      8 N         140.7611  140.5191  166.1884 N.2     1  UNL1       -0.0307
      9 C         141.3592  140.7711  167.5407 C.2     1  UNL1        0.2343
     10 C         142.0684  139.8706  168.5082 C.2     1  UNL1        0.0794
     11 C         142.5669  140.4163  169.8134 C.2     1  UNL1        0.1402
     12 F         143.2762  139.5157  170.7809 F       1  UNL1       -0.2044
     13 C         142.3561  141.8625  170.1512 C.2     1  UNL1        0.0125
     14 C         141.6468  142.7630  169.1838 C.3     1  UNL1        0.1060
     15 C         141.1483  142.2173  167.8786 C.2     1  UNL1        0.2179
     16 N         140.4200  142.8590  166.7350 N.2     1  UNL1       -0.0346
     17 N         141.7803  142.0618  163.1650 N.pl3   1  UNL1       -0.3071
     18 C         142.4677  140.7390  162.9984 C.3     1  UNL1        0.0921
     19 C         143.9647  140.6602  163.0478 C.3     1  UNL1        0.0369
     20 C         144.7745  141.9043  163.2639 C.3     1  UNL1        0.0542
     21 N         146.2716  141.8255  163.3133 N.3     1  UNL1       -0.3221
     22 C         144.0872  143.2270  163.4305 C.3     1  UNL1        0.0369
     23 C         142.5900  143.3058  163.3811 C.3     1  UNL1        0.0921
     24 H         146.5656  140.8575  163.1828 H       1  UNL1        0.1188
     25 H         146.6001  142.1615  164.2186 H       1  UNL1        0.1188
     26 C         141.8900  140.1469  157.6976 C.3     1  UNL1        0.0311
     27 C         141.5377  141.3723  158.4878 C.ar    1  UNL1       -0.0196
     28 C         141.9853  142.7238  158.0153 C.ar    1  UNL1        0.0254
     29 C         141.6331  143.9491  158.8055 C.ar    1  UNL1        0.1398
     30 F         142.0807  145.3005  158.3331 F       1  UNL1       -0.2042
     31 C         140.8332  143.8230  160.0682 C.ar    1  UNL1        0.0297
     32 C         140.3857  142.4715  160.5407 C.ar    1  UNL1        0.0046
     33 C         140.7379  141.2462  159.7505 C.ar    1  UNL1       -0.0040
@<TRIPOS>BOND
     1    26    27    1
     2    27    28   ar
     3    28    29   ar
     4    29    30    1
     5    29    31   ar
     6    31    32   ar
     7    32     1    1
     8     1     2   ar
     9     2     3   ar
    10     3     4   ar
    11     4     5   ar
    12     5     7    1
    13     7     8    2
    14     8     9    1
    15     9    10    2
    16    10    11    1
    17    11    12    1
    18    11    13    2
    19    13    14    1
    20    14    15    1
    21    15    16    2
    22     5     6   ar
    23     6    17    1
    24    17    18    1
    25    18    19    1
    26    19    20    1
    27    20    21    1
    28    20    22    1
    29    22    23    1
    30    32    33   ar
    31    33    27   ar
    32     6     1   ar
    33    23    17    1
    34    16     7    1
    35    15     9    1
    36    21    24    1
    37    21    25    1
@<TRIPOS>MOLECULE
*****
 33 37 0 0 0
SMALL
GASTEIGER

@<TRIPOS>ATOM
      1 C         139.0427  141.6944  163.3731 C.ar    1  UNL1        0.0328
      2 C         137.7892  142.3651  162.8949 C.ar    1  UNL1        0.1001
      3 N         137.7084  142.8914  161.4926 N.ar    1  UNL1       -0.2420
      4 C         138.8810  142.7469  160.5685 C.ar    1  UNL1        0.1078
      5 C         140.1345  142.0761  161.0467 C.ar    1  UNL1        0.1207
      6 C         140.2154  141.5499  162.4490 C.ar    1  UNL1        0.0583
      7 C         141.3072  141.9316  160.1226 C.2     1  UNL1        0.3780
      8 N         142.5107  142.8258  160.0788 N.2     1  UNL1       -0.0307
      9 C         143.4296  142.3144  159.0092 C.2     1  UNL1        0.2343
     10 C         144.7629  142.7945  158.5176 C.2     1  UNL1        0.0794
     11 C         145.4607  142.0642  157.4086 C.2     1  UNL1        0.1402
     12 F         146.7941  142.5442  156.9169 F       1  UNL1       -0.2044
     13 C         144.8250  140.8539  156.7913 C.2     1  UNL1        0.0125
     14 C         143.4917  140.3738  157.2829 C.3     1  UNL1        0.1060
     15 C         142.7940  141.1041  158.3918 C.2     1  UNL1        0.2179
     16 N         141.4823  140.8676  159.0799 N.2     1  UNL1       -0.0346
     17 N         141.4690  140.8791  162.9272 N.pl3   1  UNL1       -0.3071
     18 C         141.6056  139.3884  162.8305 C.3     1  UNL1        0.0921
     19 C         142.8591  138.7176  163.3087 C.3     1  UNL1        0.0369
     20 C         143.9760  139.5374  163.8837 C.3     1  UNL1        0.0542
     21 N         145.2295  138.8666  164.3619 N.3     1  UNL1       -0.3221
     22 C         143.8394  141.0281  163.9804 C.3     1  UNL1        0.0369
     23 C         142.5858  141.6989  163.5021 C.3     1  UNL1        0.0921
     24 H         145.1508  137.8594  164.2217 H       1  UNL1        0.1188
     25 H         145.3627  139.0624  165.3540 H       1  UNL1        0.1188
     26 C         137.6766  138.1767  166.9452 C.3     1  UNL1        0.0311
     27 C         138.4406  139.4092  166.5614 C.ar    1  UNL1       -0.0196
     28 C         139.2854  140.1154  167.5801 C.ar    1  UNL1        0.0254
     29 C         140.0494  141.3480  167.1963 C.ar    1  UNL1        0.1398
     30 F         140.8942  142.0542  168.2149 F       1  UNL1       -0.2042
     31 C         139.9685  141.8743  165.7940 C.ar    1  UNL1        0.0297
     32 C         139.1237  141.1681  164.7754 C.ar    1  UNL1        0.0046
     33 C         138.3597  139.9355  165.1592 C.ar    1  UNL1       -0.0040
@<TRIPOS>BOND
     1    26    27    1
     2    27    28   ar
     3    28    29   ar
     4    29    30    1
     5    29    31   ar
     6    31    32   ar
     7    32     1    1
     8     1     2   ar
     9     2     3   ar
    10     3     4   ar
    11     4     5   ar
    12     5     7    1
    13     7     8    2
    14     8     9    1
    15     9    10    2
    16    10    11    1
    17    11    12    1
    18    11    13    2
    19    13    14    1
    20    14    15    1
    21    15    16    2
    22     5     6   ar
    23     6    17    1
    24    17    18    1
    25    18    19    1
    26    19    20    1
    27    20    21    1
    28    20    22    1
    29    22    23    1
    30    32    33   ar
    31    33    27   ar
    32     6     1   ar
    33    23    17    1
    34    16     7    1
    35    15     9    1
    36    21    24    1
    37    21    25    1
@<TRIPOS>MOLECULE
*****
 33 37 0 0 0
SMALL
GASTEIGER

@<TRIPOS>ATOM
      1 C         139.5995  142.0221  162.0227 C.ar    1  UNL1        0.0328
      2 C         138.0997  142.0440  162.0142 C.ar    1  UNL1        0.1001
      3 N         137.3404  141.9159  163.3014 N.ar    1  UNL1       -0.2420
      4 C         138.0809  141.7660  164.5972 C.ar    1  UNL1        0.1078
      5 C         139.5807  141.7441  164.6058 C.ar    1  UNL1        0.1207
      6 C         140.3400  141.8721  163.3185 C.ar    1  UNL1        0.0583
      7 C         140.3212  141.5941  165.9016 C.2     1  UNL1        0.3780
      8 N         140.8191  140.3068  166.4888 N.2     1  UNL1       -0.0307
      9 C         141.4995  140.6222  167.7879 C.2     1  UNL1        0.2343
     10 C         142.1794  139.7512  168.8022 C.2     1  UNL1        0.0794
     11 C         142.7821  140.3625  170.0322 C.2     1  UNL1        0.1402
     12 F         143.4620  139.4915  171.0466 F       1  UNL1       -0.2044
     13 C         142.7047  141.8449  170.2479 C.2     1  UNL1        0.0125
     14 C         142.0248  142.7160  169.2336 C.3     1  UNL1        0.1060
     15 C         141.4222  142.1046  168.0036 C.2     1  UNL1        0.2179
     16 N         140.6940  142.7053  166.8378 N.2     1  UNL1       -0.0346
     17 N         141.8398  141.8502  163.3271 N.pl3   1  UNL1       -0.3071
     18 C         142.6077  143.1299  163.4780 C.3     1  UNL1        0.0921
     19 C         144.1075  143.1081  163.4865 C.3     1  UNL1        0.0369
     20 C         144.8395  141.8065  163.3441 C.3     1  UNL1        0.0542
     21 N         146.3393  141.7847  163.3526 N.3     1  UNL1       -0.3221
     22 C         144.0716  140.5268  163.1931 C.3     1  UNL1        0.0369
     23 C         142.5717  140.5487  163.1846 C.3     1  UNL1        0.0921
     24 H         146.6925  142.7352  163.4631 H       1  UNL1        0.1188
     25 H         146.6787  141.3960  162.4727 H       1  UNL1        0.1188
     26 C         141.8211  144.9941  158.3852 C.3     1  UNL1        0.0311
     27 C         141.4696  143.6361  158.9167 C.ar    1  UNL1       -0.0196
     28 C         141.8774  142.4063  158.1609 C.ar    1  UNL1        0.0254
     29 C         141.5260  141.0483  158.6924 C.ar    1  UNL1        0.1398
     30 F         141.9338  139.8185  157.9367 F       1  UNL1       -0.2042
     31 C         140.7666  140.9203  159.9797 C.ar    1  UNL1        0.0297
     32 C         140.3588  142.1501  160.7354 C.ar    1  UNL1        0.0046
     33 C         140.7103  143.5080  160.2039 C.ar    1  UNL1       -0.0040
@<TRIPOS>BOND
     1    26    27    1
     2    27    28   ar
     3    28    29   ar
     4    29    30    1
     5    29    31   ar
     6    31    32   ar
     7    32     1    1
     8     1     2   ar
     9     2     3   ar
    10     3     4   ar
    11     4     5   ar
    12     5     7    1
    13     7     8    2
    14     8     9    1
    15     9    10    2
    16    10    11    1
    17    11    12    1
    18    11    13    2
    19    13    14    1
    20    14    15    1
    21    15    16    2
    22     5     6   ar
    23     6    17    1
    24    17    18    1
    25    18    19    1
    26    19    20    1
    27    20    21    1
    28    20    22    1
    29    22    23    1
    30    32    33   ar
    31    33    27   ar
    32     6     1   ar
    33    23    17    1
    34    16     7    1
    35    15     9    1
    36    21    24    1
    37    21    25    1
@<TRIPOS>MOLECULE
*****
 33 37 0 0 0
SMALL
GASTEIGER

@<TRIPOS>ATOM
      1 C         142.3191  142.4664  166.3969 C.ar    1  UNL1        0.0328
      2 C         143.6851  142.8234  166.9035 C.ar    1  UNL1        0.1001
      3 N         144.6673  143.5035  165.9965 N.ar    1  UNL1       -0.2420
      4 C         144.2835  143.8267  164.5829 C.ar    1  UNL1        0.1078
      5 C         142.9175  143.4698  164.0763 C.ar    1  UNL1        0.1207
      6 C         141.9353  142.7896  164.9833 C.ar    1  UNL1        0.0583
      7 C         142.5337  143.7930  162.6627 C.2     1  UNL1        0.3780
      8 N         141.4926  144.7852  162.2367 N.2     1  UNL1       -0.0307
      9 C         141.4391  144.7862  160.7376 C.2     1  UNL1        0.2343
     10 C         140.6028  145.5619  159.7636 C.2     1  UNL1        0.0794
     11 C         140.7744  145.3460  158.2893 C.2     1  UNL1        0.1402
     12 F         139.9380  146.1217  157.3152 F       1  UNL1       -0.2044
     13 C         141.7825  144.3543  157.7889 C.2     1  UNL1        0.0125
     14 C         142.6188  143.5785  158.7628 C.3     1  UNL1        0.1060
     15 C         142.4472  143.7945  160.2372 C.2     1  UNL1        0.2179
     16 N         143.1236  143.1807  161.4270 N.2     1  UNL1       -0.0346
     17 N         140.5693  142.4327  164.4767 N.pl3   1  UNL1       -0.3071
     18 C         140.3755  141.1965  163.6495 C.3     1  UNL1        0.0921
     19 C         139.0095  140.8395  163.1430 C.3     1  UNL1        0.0369
     20 C         137.8372  141.7187  163.4636 C.3     1  UNL1        0.0542
     21 N         136.4713  141.3618  162.9570 N.3     1  UNL1       -0.3221
     22 C         138.0310  142.9549  164.2908 C.3     1  UNL1        0.0369
     23 C         139.3971  143.3119  164.7974 C.3     1  UNL1        0.0921
     24 H         136.5239  140.4978  162.4173 H       1  UNL1        0.1188
     25 H         136.1220  142.1134  162.3624 H       1  UNL1        0.1188
     26 C         138.5584  138.9575  167.1351 C.3     1  UNL1        0.0311
     27 C         139.4565  140.0318  167.6730 C.ar    1  UNL1       -0.0196
     28 C         139.3723  140.4260  169.1179 C.ar    1  UNL1        0.0254
     29 C         140.2704  141.5003  169.6558 C.ar    1  UNL1        0.1398
     30 F         140.1862  141.8944  171.1006 F       1  UNL1       -0.2042
     31 C         141.2526  142.1804  168.7487 C.ar    1  UNL1        0.0297
     32 C         141.3368  141.7863  167.3039 C.ar    1  UNL1        0.0046
     33 C         140.4387  140.7120  166.7661 C.ar    1  UNL1       -0.0040
@<TRIPOS>BOND
     1    26    27    1
     2    27    28   ar
     3    28    29   ar
     4    29    30    1
     5    29    31   ar
     6    31    32   ar
     7    32     1    1
     8     1     2   ar
     9     2     3   ar
    10     3     4   ar
    11     4     5   ar
    12     5     7    1
    13     7     8    2
    14     8     9    1
    15     9    10    2
    16    10    11    1
    17    11    12    1
    18    11    13    2
    19    13    14    1
    20    14    15    1
    21    15    16    2
    22     5     6   ar
    23     6    17    1
    24    17    18    1
    25    18    19    1
    26    19    20    1
    27    20    21    1
    28    20    22    1
    29    22    23    1
    30    32    33   ar
    31    33    27   ar
    32     6     1   ar
    33    23    17    1
    34    16     7    1
    35    15     9    1
    36    21    24    1
    37    21    25    1
