@<TRIPOS>MOLECULE
*****
 31 33 0 0 0
SMALL
GASTEIGER

@<TRIPOS>ATOM
      1 C         142.4031  143.0566  161.5009 C.3     1  UNL1        0.1219
      2 C         142.4962  142.6187  162.9326 C.ar    1  UNL1       -0.0121
      3 C         143.3541  143.3834  163.8966 C.ar    1  UNL1       -0.0038
      4 C         143.4471  142.9455  165.3282 C.ar    1  UNL1       -0.0003
      5 C         142.6822  141.7429  165.7958 C.ar    1  UNL1       -0.0000
      6 C         141.8243  140.9782  164.8319 C.ar    1  UNL1       -0.0003
      7 C         141.7313  141.4161  163.4003 C.ar    1  UNL1       -0.0038
      8 C         142.7752  141.3050  167.2275 C.ar    1  UNL1        0.0001
      9 C         142.3988  139.9041  167.6093 C.ar    1  UNL1        0.0023
     10 C         142.4918  139.4662  169.0410 C.ar    1  UNL1        0.0296
     11 C         142.9613  140.4293  170.0908 C.ar    1  UNL1        0.1401
     12 F         143.0544  139.9915  171.5225 F       1  UNL1       -0.2042
     13 C         143.3378  141.8302  169.7090 C.ar    1  UNL1        0.0296
     14 C         143.2447  142.2680  168.2773 C.ar    1  UNL1        0.0023
     15 C         143.9948  140.7988  158.6516 C.3     1  UNL1        0.1149
     16 N         143.0211  141.3280  159.6625 N.am    1  UNL1       -0.2757
     17 C         141.6917  140.6577  159.8459 C.3     1  UNL1        0.1149
     18 C         143.3768  142.5274  160.4900 C.2     1  UNL1        0.2312
     19 O         144.7062  143.1977  160.3066 O.2     1  UNL1       -0.2745
     20 C         141.3365  144.0237  161.0802 C.3     1  UNL1        0.1413
     21 N         141.7164  145.3606  160.5160 N.3     1  UNL1       -0.3144
     22 H         140.8723  145.8847  160.2855 H       1  UNL1        0.1193
     23 H         142.2749  145.2276  159.6729 H       1  UNL1        0.1193
     24 C         139.8899  143.6538  161.2237 C.2     1  UNL1        0.2406
     25 O         139.1681  142.9940  160.0864 O.2     1  UNL1       -0.2734
     26 N         139.1651  143.9439  162.5046 N.am    1  UNL1       -0.2756
     27 C         137.7263  143.6333  162.7932 C.3     1  UNL1        0.0964
     28 C         137.4238  144.0929  164.1887 C.3     1  UNL1        0.0585
     29 C         138.6758  144.6873  164.7625 C.3     1  UNL1        0.1824
     30 F         138.8253  145.2713  166.1360 F       1  UNL1       -0.2354
     31 C         139.7519  144.5952  163.7217 C.3     1  UNL1        0.1286
@<TRIPOS>BOND
     1    15    16    1
     2    16    17    1
     3    16    18   am
     4    18    19    2
     5     1    18    1
     6     1     2    1
     7     2     3   ar
     8     3     4   ar
     9     4     5   ar
    10     5     8    1
    11     8     9   ar
    12     9    10   ar
    13    10    11   ar
    14    11    12    1
    15    11    13   ar
    16    13    14   ar
    17     5     6   ar
    18     6     7   ar
    19     1    20    1
    20    20    21    1
    21    20    24    1
    22    24    25    2
    23    24    26   am
    24    26    27    1
    25    27    28    1
    26    28    29    1
    27    29    30    1
    28    29    31    1
    29     7     2   ar
    30    31    26    1
    31    14     8   ar
    32    21    22    1
    33    21    23    1
@<TRIPOS>MOLECULE
*****
 31 33 0 0 0
SMALL
GASTEIGER

@<TRIPOS>ATOM
      1 C         139.4767  143.4198  161.7585 C.3     1  UNL1        0.1219
      2 C         139.9050  143.2594  163.1872 C.ar    1  UNL1       -0.0121
      3 C         139.0817  143.8582  164.2887 C.ar    1  UNL1       -0.0038
      4 C         139.5101  143.6977  165.7173 C.ar    1  UNL1       -0.0003
      5 C         140.7617  142.9385  166.0442 C.ar    1  UNL1       -0.0000
      6 C         141.5850  142.3396  164.9426 C.ar    1  UNL1       -0.0003
      7 C         141.1567  142.5001  163.5141 C.ar    1  UNL1       -0.0038
      8 C         141.1901  142.7780  167.4728 C.ar    1  UNL1        0.0001
      9 C         142.5138  142.1494  167.7928 C.ar    1  UNL1        0.0023
     10 C         142.9422  141.9890  169.2214 C.ar    1  UNL1        0.0296
     11 C         142.0467  142.4572  170.3300 C.ar    1  UNL1        0.1401
     12 F         142.4749  142.2968  171.7585 F       1  UNL1       -0.2042
     13 C         140.7228  143.0858  170.0099 C.ar    1  UNL1        0.0296
     14 C         140.2946  143.2462  168.5814 C.ar    1  UNL1        0.0023
     15 C         141.6566  145.4405  159.1290 C.3     1  UNL1        0.1149
     16 N         141.1181  144.3070  159.9507 N.am    1  UNL1       -0.2757
     17 C         141.6826  142.9270  159.7860 C.3     1  UNL1        0.1149
     18 C         140.0152  144.5533  160.9369 C.2     1  UNL1        0.2312
     19 O         139.4507  145.9333  161.1016 O.2     1  UNL1       -0.2745
     20 C         138.5099  142.4467  161.1516 C.3     1  UNL1        0.1413
     21 N         138.0581  142.6246  159.7324 N.3     1  UNL1       -0.3144
     22 H         137.4072  141.8787  159.4867 H       1  UNL1        0.1193
     23 H         138.8664  142.5888  159.1112 H       1  UNL1        0.1193
     24 C         137.9948  141.2957  161.9640 C.2     1  UNL1        0.2406
     25 O         136.7252  141.4407  162.7494 O.2     1  UNL1       -0.2734
     26 N         138.7495  139.9996  161.9908 N.am    1  UNL1       -0.2756
     27 C         138.3594  138.7679  162.7529 C.3     1  UNL1        0.0964
     28 C         139.3955  137.7147  162.4934 C.3     1  UNL1        0.0585
     29 C         140.4259  138.2955  161.5709 C.3     1  UNL1        0.1824
     30 F         141.6420  137.5884  161.0505 F       1  UNL1       -0.2354
     31 C         140.0266  139.7076  161.2603 C.3     1  UNL1        0.1286
@<TRIPOS>BOND
     1    15    16    1
     2    16    17    1
     3    16    18   am
     4    18    19    2
     5     1    18    1
     6     1     2    1
     7     2     3   ar
     8     3     4   ar
     9     4     5   ar
    10     5     8    1
    11     8     9   ar
    12     9    10   ar
    13    10    11   ar
    14    11    12    1
    15    11    13   ar
    16    13    14   ar
    17     5     6   ar
    18     6     7   ar
    19     1    20    1
    20    20    21    1
    21    20    24    1
    22    24    25    2
    23    24    26   am
    24    26    27    1
    25    27    28    1
    26    28    29    1
    27    29    30    1
    28    29    31    1
    29     7     2   ar
    30    31    26    1
    31    14     8   ar
    32    21    22    1
    33    21    23    1
@<TRIPOS>MOLECULE
*****
 31 33 0 0 0
SMALL
GASTEIGER

@<TRIPOS>ATOM
      1 C         140.4391  143.5117  162.0332 C.3     1  UNL1        0.1219
      2 C         140.8666  142.9839  163.3707 C.ar    1  UNL1       -0.0121
      3 C         140.1766  143.4526  164.6173 C.ar    1  UNL1       -0.0038
      4 C         140.6041  142.9248  165.9547 C.ar    1  UNL1       -0.0003
      5 C         141.7216  141.9283  166.0454 C.ar    1  UNL1       -0.0000
      6 C         142.4116  141.4596  164.7988 C.ar    1  UNL1       -0.0003
      7 C         141.9840  141.9874  163.4614 C.ar    1  UNL1       -0.0038
      8 C         142.1491  141.4005  167.3829 C.ar    1  UNL1        0.0001
      9 C         142.9852  142.2510  168.2924 C.ar    1  UNL1        0.0023
     10 C         143.4127  141.7232  169.6299 C.ar    1  UNL1        0.0296
     11 C         143.0040  140.3449  170.0577 C.ar    1  UNL1        0.1401
     12 F         143.4315  139.8170  171.3951 F       1  UNL1       -0.2042
     13 C         142.1678  139.4943  169.1481 C.ar    1  UNL1        0.0296
     14 C         141.7403  140.0221  167.8107 C.ar    1  UNL1        0.0023
     15 C         138.4183  141.1408  159.5745 C.3     1  UNL1        0.1149
     16 N         139.5609  141.7830  160.3040 N.am    1  UNL1       -0.2757
     17 C         140.9679  141.3388  160.0335 C.3     1  UNL1        0.1149
     18 C         139.2965  142.8695  161.3038 C.2     1  UNL1        0.2312
     19 O         137.8895  143.3137  161.5743 O.2     1  UNL1       -0.2745
     20 C         141.1541  144.6818  161.4252 C.3     1  UNL1        0.1413
     21 N         142.5398  145.0328  161.8800 N.3     1  UNL1       -0.3144
     22 H         142.8703  145.8486  161.3647 H       1  UNL1        0.1193
     23 H         143.1643  144.2452  161.7067 H       1  UNL1        0.1193
     24 C         140.4836  145.5008  160.3624 C.2     1  UNL1        0.2406
     25 O         139.3746  146.4419  160.7289 O.2     1  UNL1       -0.2734
     26 N         140.9221  145.3787  158.9331 N.am    1  UNL1       -0.2756
     27 C         140.3485  146.1291  157.7678 C.3     1  UNL1        0.0964
     28 C         141.0831  145.6990  156.5327 C.3     1  UNL1        0.0585
     29 C         142.1106  144.6827  156.9347 C.3     1  UNL1        0.1824
     30 F         143.0692  143.9866  156.0148 F       1  UNL1       -0.2354
     31 C         142.0110  144.4848  158.4183 C.3     1  UNL1        0.1286
@<TRIPOS>BOND
     1    15    16    1
     2    16    17    1
     3    16    18   am
     4    18    19    2
     5     1    18    1
     6     1     2    1
     7     2     3   ar
     8     3     4   ar
     9     4     5   ar
    10     5     8    1
    11     8     9   ar
    12     9    10   ar
    13    10    11   ar
    14    11    12    1
    15    11    13   ar
    16    13    14   ar
    17     5     6   ar
    18     6     7   ar
    19     1    20    1
    20    20    21    1
    21    20    24    1
    22    24    25    2
    23    24    26   am
    24    26    27    1
    25    27    28    1
    26    28    29    1
    27    29    30    1
    28    29    31    1
    29     7     2   ar
    30    31    26    1
    31    14     8   ar
    32    21    22    1
    33    21    23    1
@<TRIPOS>MOLECULE
*****
 31 33 0 0 0
SMALL
GASTEIGER

@<TRIPOS>ATOM
      1 C         141.8777  144.1981  162.7404 C.3     1  UNL1        0.1219
      2 C         141.6485  143.6088  164.1007 C.ar    1  UNL1       -0.0121
      3 C         140.2863  143.6718  164.7255 C.ar    1  UNL1       -0.0038
      4 C         140.0571  143.0825  166.0857 C.ar    1  UNL1       -0.0003
      5 C         141.1901  142.4302  166.8211 C.ar    1  UNL1       -0.0000
      6 C         142.5523  142.3672  166.1963 C.ar    1  UNL1       -0.0003
      7 C         142.7815  142.9565  164.8361 C.ar    1  UNL1       -0.0038
      8 C         140.9609  141.8409  168.1814 C.ar    1  UNL1        0.0001
      9 C         140.4865  142.7126  169.3061 C.ar    1  UNL1        0.0023
     10 C         140.2573  142.1233  170.6664 C.ar    1  UNL1        0.0296
     11 C         140.5025  140.6623  170.9018 C.ar    1  UNL1        0.1401
     12 F         140.2732  140.0730  172.2620 F       1  UNL1       -0.2042
     13 C         140.9769  139.7906  169.7770 C.ar    1  UNL1        0.0296
     14 C         141.2061  140.3799  168.4168 C.ar    1  UNL1        0.0023
     15 C         144.6897  142.6055  160.4369 C.3     1  UNL1        0.1149
     16 N         143.3773  142.8135  161.1329 N.am    1  UNL1       -0.2757
     17 C         142.2522  141.8451  160.9174 C.3     1  UNL1        0.1149
     18 C         143.1901  143.9900  162.0444 C.2     1  UNL1        0.2312
     19 O         144.3152  144.9584  162.2599 O.2     1  UNL1       -0.2745
     20 C         140.7947  144.9954  162.0763 C.3     1  UNL1        0.1413
     21 N         140.5643  146.4237  162.4727 N.3     1  UNL1       -0.3144
     22 H         139.7956  146.8090  161.9241 H       1  UNL1        0.1193
     23 H         141.4109  146.9655  162.2990 H       1  UNL1        0.1193
     24 C         139.9419  144.3646  161.0157 C.2     1  UNL1        0.2406
     25 O         138.7247  143.5775  161.4018 O.2     1  UNL1       -0.2734
     26 N         140.3063  144.5208  159.5690 N.am    1  UNL1       -0.2756
     27 C         139.5535  143.9502  158.4037 C.3     1  UNL1        0.0964
     28 C         140.2694  144.3518  157.1481 C.3     1  UNL1        0.0585
     29 C         141.4645  145.1704  157.5375 C.3     1  UNL1        0.1824
     30 F         142.4617  145.7780  156.5961 F       1  UNL1       -0.2354
     31 C         141.4873  145.2749  159.0337 C.3     1  UNL1        0.1286
@<TRIPOS>BOND
     1    15    16    1
     2    16    17    1
     3    16    18   am
     4    18    19    2
     5     1    18    1
     6     1     2    1
     7     2     3   ar
     8     3     4   ar
     9     4     5   ar
    10     5     8    1
    11     8     9   ar
    12     9    10   ar
    13    10    11   ar
    14    11    12    1
    15    11    13   ar
    16    13    14   ar
    17     5     6   ar
    18     6     7   ar
    19     1    20    1
    20    20    21    1
    21    20    24    1
    22    24    25    2
    23    24    26   am
    24    26    27    1
    25    27    28    1
    26    28    29    1
    27    29    30    1
    28    29    31    1
    29     7     2   ar
    30    31    26    1
    31    14     8   ar
    32    21    22    1
    33    21    23    1
@<TRIPOS>MOLECULE
*****
 31 33 0 0 0
SMALL
GASTEIGER

@<TRIPOS>ATOM
      1 C         140.0263  143.7109  161.8441 C.3     1  UNL1        0.1219
      2 C         140.3303  143.4137  163.2827 C.ar    1  UNL1       -0.0121
      3 C         141.7113  142.9883  163.6850 C.ar    1  UNL1       -0.0038
      4 C         142.0152  142.6912  165.1235 C.ar    1  UNL1       -0.0003
      5 C         140.9383  142.8196  166.1596 C.ar    1  UNL1       -0.0000
      6 C         139.5573  143.2450  165.7573 C.ar    1  UNL1       -0.0003
      7 C         139.2533  143.5421  164.3188 C.ar    1  UNL1       -0.0038
      8 C         141.2423  142.5225  167.5982 C.ar    1  UNL1        0.0001
      9 C         142.3989  141.6357  167.9526 C.ar    1  UNL1        0.0023
     10 C         142.7030  141.3386  169.3912 C.ar    1  UNL1        0.0296
     11 C         141.8504  141.9283  170.4752 C.ar    1  UNL1        0.1401
     12 F         142.1543  141.6313  171.9137 F       1  UNL1       -0.2042
     13 C         140.6937  142.8152  170.1207 C.ar    1  UNL1        0.0296
     14 C         140.3897  143.1123  168.6822 C.ar    1  UNL1        0.0023
     15 C         138.7491  140.6451  159.6715 C.3     1  UNL1        0.1149
     16 N         139.6582  141.5507  160.4484 N.am    1  UNL1       -0.2757
     17 C         141.1085  141.2014  160.6065 C.3     1  UNL1        0.1149
     18 C         139.1172  142.8053  161.0672 C.2     1  UNL1        0.2312
     19 O         137.6669  143.1546  160.9091 O.2     1  UNL1       -0.2745
     20 C         140.6313  144.9134  161.1825 C.3     1  UNL1        0.1413
     21 N         140.2144  146.2911  161.6049 N.3     1  UNL1       -0.3144
     22 H         140.7221  146.9837  161.0545 H       1  UNL1        0.1193
     23 H         140.4253  146.4218  162.5942 H       1  UNL1        0.1193
     24 C         141.6533  144.7384  160.0986 C.2     1  UNL1        0.2406
     25 O         142.9717  144.0933  160.4079 O.2     1  UNL1       -0.2734
     26 N         141.3569  145.2085  158.7053 N.am    1  UNL1       -0.2756
     27 C         142.2759  145.1017  157.5246 C.3     1  UNL1        0.0964
     28 C         141.5764  145.6952  156.3377 C.3     1  UNL1        0.0585
     29 C         140.2252  146.1687  156.7849 C.3     1  UNL1        0.1824
     30 F         139.1912  146.8272  155.9207 F       1  UNL1       -0.2354
     31 C         140.0895  145.8679  158.2482 C.3     1  UNL1        0.1286
@<TRIPOS>BOND
     1    15    16    1
     2    16    17    1
     3    16    18   am
     4    18    19    2
     5     1    18    1
     6     1     2    1
     7     2     3   ar
     8     3     4   ar
     9     4     5   ar
    10     5     8    1
    11     8     9   ar
    12     9    10   ar
    13    10    11   ar
    14    11    12    1
    15    11    13   ar
    16    13    14   ar
    17     5     6   ar
    18     6     7   ar
    19     1    20    1
    20    20    21    1
    21    20    24    1
    22    24    25    2
    23    24    26   am
    24    26    27    1
    25    27    28    1
    26    28    29    1
    27    29    30    1
    28    29    31    1
    29     7     2   ar
    30    31    26    1
    31    14     8   ar
    32    21    22    1
    33    21    23    1
@<TRIPOS>MOLECULE
*****
 31 33 0 0 0
SMALL
GASTEIGER

@<TRIPOS>ATOM
      1 C         138.7539  142.7142  162.9243 C.3     1  UNL1        0.1219
      2 C         139.4613  142.2973  164.1796 C.ar    1  UNL1       -0.0121
      3 C         139.0453  141.0462  164.8948 C.ar    1  UNL1       -0.0038
      4 C         139.7527  140.6294  166.1501 C.ar    1  UNL1       -0.0003
      5 C         140.8762  141.4637  166.6902 C.ar    1  UNL1       -0.0000
      6 C         141.2922  142.7148  165.9750 C.ar    1  UNL1       -0.0003
      7 C         140.5848  143.1316  164.7198 C.ar    1  UNL1       -0.0038
      8 C         141.5836  141.0468  167.9455 C.ar    1  UNL1        0.0001
      9 C         142.6701  141.9094  168.5159 C.ar    1  UNL1        0.0023
     10 C         143.3776  141.4925  169.7712 C.ar    1  UNL1        0.0296
     11 C         142.9984  140.2130  170.4562 C.ar    1  UNL1        0.1401
     12 F         143.7057  139.7961  171.7115 F       1  UNL1       -0.2042
     13 C         141.9118  139.3504  169.8858 C.ar    1  UNL1        0.0296
     14 C         141.2044  139.7673  168.6305 C.ar    1  UNL1        0.0023
     15 C         139.7845  146.2146  161.3640 C.3     1  UNL1        0.1149
     16 N         139.8327  144.7665  161.7521 N.am    1  UNL1       -0.2757
     17 C         141.0079  143.9226  161.3561 C.3     1  UNL1        0.1149
     18 C         138.7057  144.1623  162.5362 C.2     1  UNL1        0.2312
     19 O         137.5305  145.0063  162.9322 O.2     1  UNL1       -0.2745
     20 C         138.0947  141.6830  162.0571 C.3     1  UNL1        0.1413
     21 N         136.8314  141.0154  162.5140 N.3     1  UNL1       -0.3144
     22 H         136.5247  140.3478  161.8065 H       1  UNL1        0.1193
     23 H         136.1066  141.7191  162.6544 H       1  UNL1        0.1193
     24 C         138.6986  141.3193  160.7331 C.2     1  UNL1        0.2406
     25 O         138.3306  142.0942  159.5027 O.2     1  UNL1       -0.2734
     26 N         139.6707  140.1807  160.6396 N.am    1  UNL1       -0.2756
     27 C         140.3522  139.7036  159.3914 C.3     1  UNL1        0.0964
     28 C         141.2346  138.5473  159.7582 C.3     1  UNL1        0.0585
     29 C         141.0984  138.3099  161.2331 C.3     1  UNL1        0.1824
     30 F         141.8047  137.2492  162.0242 F       1  UNL1       -0.2354
     31 C         140.1318  139.3194  161.7778 C.3     1  UNL1        0.1286
@<TRIPOS>BOND
     1    15    16    1
     2    16    17    1
     3    16    18   am
     4    18    19    2
     5     1    18    1
     6     1     2    1
     7     2     3   ar
     8     3     4   ar
     9     4     5   ar
    10     5     8    1
    11     8     9   ar
    12     9    10   ar
    13    10    11   ar
    14    11    12    1
    15    11    13   ar
    16    13    14   ar
    17     5     6   ar
    18     6     7   ar
    19     1    20    1
    20    20    21    1
    21    20    24    1
    22    24    25    2
    23    24    26   am
    24    26    27    1
    25    27    28    1
    26    28    29    1
    27    29    30    1
    28    29    31    1
    29     7     2   ar
    30    31    26    1
    31    14     8   ar
    32    21    22    1
    33    21    23    1
@<TRIPOS>MOLECULE
*****
 31 33 0 0 0
SMALL
GASTEIGER

@<TRIPOS>ATOM
      1 C         140.7319  139.6481  161.7218 C.3     1  UNL1        0.1219
      2 C         140.5911  140.0898  163.1484 C.ar    1  UNL1       -0.0121
      3 C         140.6585  139.0807  164.2561 C.ar    1  UNL1       -0.0038
      4 C         140.5177  139.5224  165.6827 C.ar    1  UNL1       -0.0003
      5 C         140.3094  140.9733  166.0015 C.ar    1  UNL1       -0.0000
      6 C         140.2420  141.9824  164.8938 C.ar    1  UNL1       -0.0003
      7 C         140.3828  141.5407  163.4672 C.ar    1  UNL1       -0.0038
      8 C         140.1686  141.4150  167.4281 C.ar    1  UNL1        0.0001
      9 C         140.5598  142.8079  167.8240 C.ar    1  UNL1        0.0023
     10 C         140.4190  143.2496  169.2507 C.ar    1  UNL1        0.0296
     11 C         139.8870  142.2983  170.2812 C.ar    1  UNL1        0.1401
     12 F         139.7462  142.7400  171.7078 F       1  UNL1       -0.2042
     13 C         139.4958  140.9054  169.8852 C.ar    1  UNL1        0.0296
     14 C         139.6366  140.4638  168.4587 C.ar    1  UNL1        0.0023
     15 C         137.7388  140.2469  159.1855 C.3     1  UNL1        0.1149
     16 N         138.9617  140.4935  160.0184 N.am    1  UNL1       -0.2757
     17 C         139.6373  141.8323  159.9808 C.3     1  UNL1        0.1149
     18 C         139.5090  139.4015  160.8889 C.2     1  UNL1        0.2312
     19 O         138.8335  138.0627  160.9265 O.2     1  UNL1       -0.2745
     20 C         142.0955  139.4531  161.1282 C.3     1  UNL1        0.1413
     21 N         142.2567  139.3371  159.6414 N.3     1  UNL1       -0.3144
     22 H         143.2431  139.2094  159.4152 H       1  UNL1        0.1193
     23 H         141.9128  140.1873  159.1948 H       1  UNL1        0.1193
     24 C         143.2980  139.3740  162.0214 C.2     1  UNL1        0.2406
     25 O         143.7822  138.0414  162.5110 O.2     1  UNL1       -0.2734
     26 N         144.0164  140.6275  162.4249 N.am    1  UNL1       -0.2756
     27 C         145.2264  140.7048  163.3079 C.3     1  UNL1        0.0964
     28 C         145.6087  142.1488  163.4450 C.3     1  UNL1        0.0585
     29 C         144.6348  142.9639  162.6466 C.3     1  UNL1        0.1824
     30 F         144.6436  144.4570  162.5037 F       1  UNL1       -0.2354
     31 C         143.6508  142.0236  162.0161 C.3     1  UNL1        0.1286
@<TRIPOS>BOND
     1    15    16    1
     2    16    17    1
     3    16    18   am
     4    18    19    2
     5     1    18    1
     6     1     2    1
     7     2     3   ar
     8     3     4   ar
     9     4     5   ar
    10     5     8    1
    11     8     9   ar
    12     9    10   ar
    13    10    11   ar
    14    11    12    1
    15    11    13   ar
    16    13    14   ar
    17     5     6   ar
    18     6     7   ar
    19     1    20    1
    20    20    21    1
    21    20    24    1
    22    24    25    2
    23    24    26   am
    24    26    27    1
    25    27    28    1
    26    28    29    1
    27    29    30    1
    28    29    31    1
    29     7     2   ar
    30    31    26    1
    31    14     8   ar
    32    21    22    1
    33    21    23    1
@<TRIPOS>MOLECULE
*****
 31 33 0 0 0
SMALL
GASTEIGER

@<TRIPOS>ATOM
      1 C         141.0905  142.6432  161.3070 C.3     1  UNL1        0.1219
      2 C         141.2536  142.6109  162.7978 C.ar    1  UNL1       -0.0121
      3 C         140.3834  143.4701  163.6663 C.ar    1  UNL1       -0.0038
      4 C         140.5465  143.4377  165.1571 C.ar    1  UNL1       -0.0003
      5 C         141.5799  142.5462  165.7793 C.ar    1  UNL1       -0.0000
      6 C         142.4502  141.6870  164.9108 C.ar    1  UNL1       -0.0003
      7 C         142.2871  141.7193  163.4201 C.ar    1  UNL1       -0.0038
      8 C         141.7431  142.5138  167.2701 C.ar    1  UNL1        0.0001
      9 C         143.0798  142.1957  167.8716 C.ar    1  UNL1        0.0023
     10 C         143.2429  142.1634  169.3624 C.ar    1  UNL1        0.0296
     11 C         142.0693  142.4492  170.2516 C.ar    1  UNL1        0.1401
     12 F         142.2323  142.4169  171.7423 F       1  UNL1       -0.2042
     13 C         140.7325  142.7674  169.6501 C.ar    1  UNL1        0.0296
     14 C         140.5694  142.7997  168.1593 C.ar    1  UNL1        0.0023
     15 C         144.3329  142.7123  159.0196 C.3     1  UNL1        0.1149
     16 N         143.2194  142.2011  159.8850 N.am    1  UNL1       -0.2757
     17 C         143.1214  140.7364  160.1937 C.3     1  UNL1        0.1149
     18 C         142.2040  143.1544  160.4417 C.2     1  UNL1        0.2312
     19 O         142.3020  144.6191  160.1329 O.2     1  UNL1       -0.2745
     20 C         139.8140  142.1644  160.6817 C.3     1  UNL1        0.1413
     21 N         138.7176  143.1406  160.3731 N.3     1  UNL1       -0.3144
     22 H         137.9299  142.6460  159.9544 H       1  UNL1        0.1193
     23 H         139.0628  143.8444  159.7206 H       1  UNL1        0.1193
     24 C         139.6337  140.7093  160.3649 C.2     1  UNL1        0.2406
     25 O         139.8645  140.2115  158.9689 O.2     1  UNL1       -0.2734
     26 N         139.2226  139.7521  161.4441 N.am    1  UNL1       -0.2756
     27 C         139.0046  138.2773  161.2783 C.3     1  UNL1        0.0964
     28 C         138.6046  137.7153  162.6104 C.3     1  UNL1        0.0585
     29 C         138.5754  138.8428  163.5993 C.3     1  UNL1        0.1824
     30 F         138.2257  138.7311  165.0536 F       1  UNL1       -0.2354
     31 C         138.9574  140.1016  162.8785 C.3     1  UNL1        0.1286
@<TRIPOS>BOND
     1    15    16    1
     2    16    17    1
     3    16    18   am
     4    18    19    2
     5     1    18    1
     6     1     2    1
     7     2     3   ar
     8     3     4   ar
     9     4     5   ar
    10     5     8    1
    11     8     9   ar
    12     9    10   ar
    13    10    11   ar
    14    11    12    1
    15    11    13   ar
    16    13    14   ar
    17     5     6   ar
    18     6     7   ar
    19     1    20    1
    20    20    21    1
    21    20    24    1
    22    24    25    2
    23    24    26   am
    24    26    27    1
    25    27    28    1
    26    28    29    1
    27    29    30    1
    28    29    31    1
    29     7     2   ar
    30    31    26    1
    31    14     8   ar
    32    21    22    1
    33    21    23    1
@<TRIPOS>MOLECULE
*****
 31 33 0 0 0
SMALL
GASTEIGER

@<TRIPOS>ATOM
      1 C         143.5311  140.7490  161.7728 C.3     1  UNL1        0.1219
      2 C         143.0235  140.5968  163.1761 C.ar    1  UNL1       -0.0121
      3 C         142.1736  141.6713  163.7869 C.ar    1  UNL1       -0.0038
      4 C         141.6660  141.5190  165.1901 C.ar    1  UNL1       -0.0003
      5 C         142.0083  140.2923  165.9826 C.ar    1  UNL1       -0.0000
      6 C         142.8581  139.2178  165.3718 C.ar    1  UNL1       -0.0003
      7 C         143.3658  139.3701  163.9686 C.ar    1  UNL1       -0.0038
      8 C         141.5006  140.1401  167.3859 C.ar    1  UNL1        0.0001
      9 C         142.4099  139.6219  168.4603 C.ar    1  UNL1        0.0023
     10 C         141.9023  139.4696  169.8637 C.ar    1  UNL1        0.0296
     11 C         140.4852  139.8356  170.1924 C.ar    1  UNL1        0.1401
     12 F         139.9776  139.6834  171.5956 F       1  UNL1       -0.2042
     13 C         139.5759  140.3538  169.1178 C.ar    1  UNL1        0.0296
     14 C         140.0836  140.5060  167.7146 C.ar    1  UNL1        0.0023
     15 C         141.8471  138.4242  159.0325 C.3     1  UNL1        0.1149
     16 N         142.0433  139.5314  160.0253 N.am    1  UNL1       -0.2757
     17 C         140.9480  140.5283  160.2633 C.3     1  UNL1        0.1149
     18 C         143.3349  139.6418  160.7800 C.2     1  UNL1        0.2312
     19 O         144.4302  138.6450  160.5420 O.2     1  UNL1       -0.2745
     20 C         144.2350  142.0084  161.3624 C.3     1  UNL1        0.1413
     21 N         145.6396  142.2663  161.8215 N.3     1  UNL1       -0.3144
     22 H         145.9591  143.1616  161.4518 H       1  UNL1        0.1193
     23 H         146.2497  141.5219  161.4841 H       1  UNL1        0.1193
     24 C         143.5344  143.0098  160.4927 C.2     1  UNL1        0.2406
     25 O         142.7899  144.1533  161.1157 O.2     1  UNL1       -0.2734
     26 N         143.5783  142.8677  159.0001 N.am    1  UNL1       -0.2756
     27 C         142.9291  143.7862  158.0076 C.3     1  UNL1        0.0964
     28 C         143.2287  143.2684  156.6319 C.3     1  UNL1        0.0585
     29 C         144.0631  142.0299  156.7744 C.3     1  UNL1        0.1824
     30 F         144.5890  141.1872  155.6506 F       1  UNL1       -0.2354
     31 C         144.2791  141.7824  158.2379 C.3     1  UNL1        0.1286
@<TRIPOS>BOND
     1    15    16    1
     2    16    17    1
     3    16    18   am
     4    18    19    2
     5     1    18    1
     6     1     2    1
     7     2     3   ar
     8     3     4   ar
     9     4     5   ar
    10     5     8    1
    11     8     9   ar
    12     9    10   ar
    13    10    11   ar
    14    11    12    1
    15    11    13   ar
    16    13    14   ar
    17     5     6   ar
    18     6     7   ar
    19     1    20    1
    20    20    21    1
    21    20    24    1
    22    24    25    2
    23    24    26   am
    24    26    27    1
    25    27    28    1
    26    28    29    1
    27    29    30    1
    28    29    31    1
    29     7     2   ar
    30    31    26    1
    31    14     8   ar
    32    21    22    1
    33    21    23    1
