@<TRIPOS>MOLECULE
*****
 39 44 0 0 0
SMALL
GASTEIGER

@<TRIPOS>ATOM
      1 N         142.9452  140.6018  167.1707 N.3     1  UNL1       -0.2750
      2 C         142.6856  141.4625  168.3715 C.3     1  UNL1        0.0594
      3 C         142.3928  140.5607  169.5338 C.3     1  UNL1        0.0174
      4 C         142.4715  139.1425  169.0514 C.3     1  UNL1        0.0174
      5 C         142.8129  139.1679  167.5910 C.3     1  UNL1        0.0594
      6 C         143.1553  139.4938  166.1571 C.3     1  UNL1        0.0386
      7 C         143.2538  140.9656  165.8854 C.3     1  UNL1        0.0890
      8 C         143.0190  141.9500  166.9927 C.3     1  UNL1        0.0386
      9 N         143.5872  141.4531  164.5066 N.ar    1  UNL1       -0.3202
     10 C         144.1406  142.8032  164.1586 C.ar    1  UNL1        0.1201
     11 C         144.4578  143.9027  165.1283 C.3     1  UNL1        0.0718
     12 N         144.3211  142.8605  162.6706 N.ar    1  UNL1       -0.2339
     13 C         143.8793  141.5460  162.0990 C.ar    1  UNL1        0.0919
     14 C         143.4257  140.6761  163.2337 C.ar    1  UNL1        0.0549
     15 C         142.9243  139.2889  162.9613 C.3     1  UNL1        0.0665
     16 C         142.8764  138.7716  161.5542 C.3     1  UNL1        0.0988
     17 N         143.3300  139.6415  160.4195 N.pl3   1  UNL1       -0.2861
     18 C         143.8315  141.0287  160.6919 C.3     1  UNL1        0.1395
     19 C         143.2821  139.1241  159.0123 C.ar    1  UNL1        0.1514
     20 C         142.6716  137.7842  158.7262 C.ar    1  UNL1        0.1331
     21 N         142.6237  137.2668  157.3190 N.ar    1  UNL1       -0.2378
     22 C         143.1864  138.0894  156.1980 C.ar    1  UNL1        0.1196
     23 C         143.7969  139.4294  156.4841 C.ar    1  UNL1        0.1210
     24 N         143.8448  139.9467  157.8912 N.ar    1  UNL1       -0.2259
     25 C         143.2786  141.0892  165.7920 C.3     1  UNL1        0.0741
     26 C         142.1788  141.4263  164.8293 C.3     1  UNL1        0.0414
     27 C         140.7836  141.6501  165.3328 C.3     1  UNL1        0.0955
     28 C         139.8938  140.4780  165.6230 C.ar    1  UNL1       -0.0022
     29 C         139.3074  140.3024  166.9924 C.ar    1  UNL1       -0.0025
     30 C         138.4176  139.1303  167.2827 C.ar    1  UNL1        0.0020
     31 C         138.1142  138.1336  166.2035 C.ar    1  UNL1        0.0296
     32 C         138.7007  138.3092  164.8341 C.ar    1  UNL1        0.1399
     33 F         138.6125  137.5303  163.5551 F       1  UNL1       -0.2042
     34 C         139.5904  139.4813  164.5438 C.ar    1  UNL1        0.0270
     35 C         138.4189  144.8362  165.2478 C.3     1  UNL1        0.0946
     36 C         138.9243  143.4401  165.0345 C.2     1  UNL1        0.2232
     37 O         137.8412  142.7177  164.2897 O.2     1  UNL1       -0.2751
     38 N         140.2783  143.0462  165.5460 N.am    1  UNL1       -0.3021
     39 H         140.8353  143.7041  166.0217 H       1  UNL1        0.1497
@<TRIPOS>BOND
     1    35    36    1
     2    36    37    2
     3    36    38   am
     4    38    27    1
     5    27    26    1
     6    26    25    1
     7    25     1    1
     8     1     2    1
     9     2     3    1
    10     3     4    1
    11     5     4    1
    12     5     6    1
    13     6     7    1
    14     7     9    1
    15     9    10   ar
    16    10    11    1
    17    10    12   ar
    18    12    13   ar
    19    13    14   ar
    20    14    15    1
    21    15    16    1
    22    16    17    1
    23    17    19    1
    24    19    20   ar
    25    20    21   ar
    26    21    22   ar
    27    22    23   ar
    28    23    24   ar
    29    17    18    1
    30     7     8    1
    31    27    28    1
    32    28    29   ar
    33    29    30   ar
    34    30    31   ar
    35    31    32   ar
    36    32    33    1
    37    32    34   ar
    38     5     1    1
    39    14     9   ar
    40    24    19   ar
    41    34    28   ar
    42     8     2    1
    43    18    13    1
    44    38    39    1
@<TRIPOS>MOLECULE
*****
 39 44 0 0 0
SMALL
GASTEIGER

@<TRIPOS>ATOM
      1 N         142.9554  141.0349  167.8050 N.3     1  UNL1       -0.2750
      2 C         142.8528  140.0561  168.9370 C.3     1  UNL1        0.0594
      3 C         143.1698  140.7842  170.2096 C.3     1  UNL1        0.0174
      4 C         143.4683  142.2130  169.8640 C.3     1  UNL1        0.0174
      5 C         143.3358  142.3680  168.3779 C.3     1  UNL1        0.0594
      6 C         143.1335  142.2294  166.8882 C.3     1  UNL1        0.0386
      7 C         142.7568  140.8415  166.4623 C.3     1  UNL1        0.0890
      8 C         142.6164  139.7547  167.4867 C.3     1  UNL1        0.0386
      9 N         142.5205  140.5401  165.0120 N.ar    1  UNL1       -0.3202
     10 C         142.3138  139.1789  164.4167 C.ar    1  UNL1        0.1201
     11 C         142.3072  137.8801  165.1670 C.3     1  UNL1        0.0718
     12 N         142.1149  139.3446  162.9392 N.ar    1  UNL1       -0.2339
     13 C         142.1987  140.8081  162.6214 C.ar    1  UNL1        0.0919
     14 C         142.4494  141.5470  163.9025 C.ar    1  UNL1        0.0549
     15 C         142.5805  143.0412  163.8932 C.3     1  UNL1        0.0665
     16 C         142.4609  143.7965  162.6028 C.3     1  UNL1        0.0988
     17 N         142.2102  143.0577  161.3217 N.pl3   1  UNL1       -0.2861
     18 C         142.0792  141.5635  161.3310 C.3     1  UNL1        0.1395
     19 C         142.0907  143.8131  160.0313 C.ar    1  UNL1        0.1514
     20 C         141.2087  145.0236  159.9498 C.ar    1  UNL1        0.1331
     21 N         141.0891  145.7790  158.6594 N.ar    1  UNL1       -0.2378
     22 C         141.8516  145.3238  157.4505 C.ar    1  UNL1        0.1196
     23 C         142.7336  144.1132  157.5320 C.ar    1  UNL1        0.1210
     24 N         142.8531  143.3579  158.8224 N.ar    1  UNL1       -0.2259
     25 C         142.7191  140.7335  166.3547 C.3     1  UNL1        0.0741
     26 C         141.3182  140.6130  165.8323 C.3     1  UNL1        0.0414
     27 C         140.2277  141.4689  166.4053 C.3     1  UNL1        0.0955
     28 C         139.4042  142.3387  165.5025 C.ar    1  UNL1       -0.0022
     29 C         139.4480  143.8305  165.6537 C.ar    1  UNL1       -0.0025
     30 C         138.6245  144.7004  164.7508 C.ar    1  UNL1        0.0020
     31 C         137.7573  144.0785  163.6967 C.ar    1  UNL1        0.0296
     32 C         137.7135  142.5868  163.5455 C.ar    1  UNL1        0.1399
     33 F         136.9808  141.6535  162.6277 F       1  UNL1       -0.2042
     34 C         138.5369  141.7169  164.4484 C.ar    1  UNL1        0.0270
     35 C         138.9110  140.3161  169.9673 C.3     1  UNL1        0.0946
     36 C         139.1780  140.3301  168.4913 C.2     1  UNL1        0.2232
     37 O         138.5309  139.0932  167.9425 O.2     1  UNL1       -0.2751
     38 N         139.9607  141.4549  167.8813 N.am    1  UNL1       -0.3021
     39 H         140.2992  142.1840  168.4497 H       1  UNL1        0.1497
@<TRIPOS>BOND
     1    35    36    1
     2    36    37    2
     3    36    38   am
     4    38    27    1
     5    27    26    1
     6    26    25    1
     7    25     1    1
     8     1     2    1
     9     2     3    1
    10     3     4    1
    11     5     4    1
    12     5     6    1
    13     6     7    1
    14     7     9    1
    15     9    10   ar
    16    10    11    1
    17    10    12   ar
    18    12    13   ar
    19    13    14   ar
    20    14    15    1
    21    15    16    1
    22    16    17    1
    23    17    19    1
    24    19    20   ar
    25    20    21   ar
    26    21    22   ar
    27    22    23   ar
    28    23    24   ar
    29    17    18    1
    30     7     8    1
    31    27    28    1
    32    28    29   ar
    33    29    30   ar
    34    30    31   ar
    35    31    32   ar
    36    32    33    1
    37    32    34   ar
    38     5     1    1
    39    14     9   ar
    40    24    19   ar
    41    34    28   ar
    42     8     2    1
    43    18    13    1
    44    38    39    1
@<TRIPOS>MOLECULE
*****
 39 44 0 0 0
SMALL
GASTEIGER

@<TRIPOS>ATOM
      1 N         142.8352  140.6835  166.5861 N.3     1  UNL1       -0.2750
      2 C         143.1470  142.1222  166.8743 C.3     1  UNL1        0.0594
      3 C         143.1659  142.3032  168.3632 C.3     1  UNL1        0.0174
      4 C         142.8657  140.9764  168.9952 C.3     1  UNL1        0.0174
      5 C         142.6613  139.9754  167.8970 C.3     1  UNL1        0.0594
      6 C         142.5097  139.2028  166.6088 C.3     1  UNL1        0.0386
      7 C         142.7110  140.0410  165.3814 C.3     1  UNL1        0.0890
      8 C         143.0297  141.5008  165.5141 C.3     1  UNL1        0.0386
      9 N         142.5936  139.4196  164.0212 N.ar    1  UNL1       -0.3202
     10 C         141.9907  138.0813  163.7123 C.ar    1  UNL1        0.1201
     11 C         141.3994  137.1294  164.7093 C.3     1  UNL1        0.0718
     12 N         142.0831  137.8620  162.2313 N.ar    1  UNL1       -0.2339
     13 C         142.7430  139.0648  161.6249 C.ar    1  UNL1        0.0919
     14 C         143.0586  140.0275  162.7311 C.ar    1  UNL1        0.0549
     15 C         143.7285  141.3332  162.4208 C.3     1  UNL1        0.0665
     16 C         144.0828  141.6762  161.0042 C.3     1  UNL1        0.0988
     17 N         143.7673  140.7136  159.8980 N.pl3   1  UNL1       -0.2861
     18 C         143.0974  139.4079  160.2083 C.3     1  UNL1        0.1395
     19 C         144.1217  141.0567  158.4813 C.ar    1  UNL1        0.1514
     20 C         143.9580  142.4634  157.9869 C.ar    1  UNL1        0.1331
     21 N         144.3124  142.8065  156.5703 N.ar    1  UNL1       -0.2378
     22 C         144.8305  141.7428  155.6481 C.ar    1  UNL1        0.1196
     23 C         144.9941  140.3361  156.1426 C.ar    1  UNL1        0.1210
     24 N         144.6397  139.9931  157.5592 N.ar    1  UNL1       -0.2259
     25 C         142.7178  140.0621  165.2260 C.3     1  UNL1        0.0741
     26 C         141.4300  140.1636  164.4636 C.3     1  UNL1        0.0414
     27 C         140.2850  140.9521  165.0269 C.3     1  UNL1        0.0955
     28 C         139.9753  142.3162  164.4854 C.ar    1  UNL1       -0.0022
     29 C         140.2821  142.6422  163.0537 C.ar    1  UNL1       -0.0025
     30 C         139.9725  144.0063  162.5121 C.ar    1  UNL1        0.0020
     31 C         139.3561  145.0444  163.4022 C.ar    1  UNL1        0.0296
     32 C         139.0493  144.7185  164.8338 C.ar    1  UNL1        0.1399
     33 F         138.4516  145.4897  165.9731 F       1  UNL1       -0.2042
     34 C         139.3589  143.3544  165.3755 C.ar    1  UNL1        0.0270
     35 C         137.7440  138.6074  166.9751 C.3     1  UNL1        0.0946
     36 C         138.5793  139.1831  165.8702 C.2     1  UNL1        0.2232
     37 O         138.3072  138.3366  164.6622 O.2     1  UNL1       -0.2751
     38 N         139.4496  140.3765  166.1318 N.am    1  UNL1       -0.3021
     39 H         139.4726  140.7819  167.0286 H       1  UNL1        0.1497
@<TRIPOS>BOND
     1    35    36    1
     2    36    37    2
     3    36    38   am
     4    38    27    1
     5    27    26    1
     6    26    25    1
     7    25     1    1
     8     1     2    1
     9     2     3    1
    10     3     4    1
    11     5     4    1
    12     5     6    1
    13     6     7    1
    14     7     9    1
    15     9    10   ar
    16    10    11    1
    17    10    12   ar
    18    12    13   ar
    19    13    14   ar
    20    14    15    1
    21    15    16    1
    22    16    17    1
    23    17    19    1
    24    19    20   ar
    25    20    21   ar
    26    21    22   ar
    27    22    23   ar
    28    23    24   ar
    29    17    18    1
    30     7     8    1
    31    27    28    1
    32    28    29   ar
    33    29    30   ar
    34    30    31   ar
    35    31    32   ar
    36    32    33    1
    37    32    34   ar
    38     5     1    1
    39    14     9   ar
    40    24    19   ar
    41    34    28   ar
    42     8     2    1
    43    18    13    1
    44    38    39    1
@<TRIPOS>MOLECULE
*****
 39 44 0 0 0
SMALL
GASTEIGER

@<TRIPOS>ATOM
      1 N         139.5793  140.8597  167.6034 N.3     1  UNL1       -0.2750
      2 C         140.0519  142.0937  168.3133 C.3     1  UNL1        0.0594
      3 C         139.8294  141.8966  169.7835 C.3     1  UNL1        0.0174
      4 C         139.2194  140.5408  169.9824 C.3     1  UNL1        0.0174
      5 C         139.0647  139.8999  168.6350 C.3     1  UNL1        0.0594
      6 C         139.0309  139.5121  167.1763 C.3     1  UNL1        0.0386
      7 C         139.5770  140.5695  166.2634 C.3     1  UNL1        0.0890
      8 C         140.0876  141.8604  166.8319 C.3     1  UNL1        0.0386
      9 N         139.6127  140.3362  164.7821 N.ar    1  UNL1       -0.3202
     10 C         139.2976  139.0460  164.0849 C.ar    1  UNL1        0.1201
     11 C         138.8914  137.7626  164.7466 C.3     1  UNL1        0.0718
     12 N         139.4599  139.2647  162.6099 N.ar    1  UNL1       -0.2339
     13 C         139.8753  140.6900  162.3954 C.ar    1  UNL1        0.0919
     14 C         139.9698  141.3522  163.7380 C.ar    1  UNL1        0.0549
     15 C         140.3687  142.7948  163.8362 C.3     1  UNL1        0.0665
     16 C         140.6732  143.5752  162.5919 C.3     1  UNL1        0.0988
     17 N         140.5788  142.9129  161.2494 N.pl3   1  UNL1       -0.2861
     18 C         140.1798  141.4703  161.1511 C.3     1  UNL1        0.1395
     19 C         140.8833  143.6933  160.0050 C.ar    1  UNL1        0.1514
     20 C         142.3072  143.9201  159.5917 C.ar    1  UNL1        0.1331
     21 N         142.6117  144.7006  158.3473 N.ar    1  UNL1       -0.2378
     22 C         141.4922  145.2541  157.5164 C.ar    1  UNL1        0.1196
     23 C         140.0683  145.0272  157.9298 C.ar    1  UNL1        0.1210
     24 N         139.7638  144.2468  159.1741 N.ar    1  UNL1       -0.2259
     25 C         139.6149  140.6264  166.1221 C.3     1  UNL1        0.0741
     26 C         140.7360  139.8369  165.5140 C.3     1  UNL1        0.0414
     27 C         142.0929  139.8459  166.1534 C.3     1  UNL1        0.0955
     28 C         143.2366  140.5413  165.4763 C.ar    1  UNL1       -0.0022
     29 C         144.2467  139.7456  164.7040 C.ar    1  UNL1       -0.0025
     30 C         145.3904  140.4409  164.0268 C.ar    1  UNL1        0.0020
     31 C         145.5239  141.9319  164.1220 C.ar    1  UNL1        0.0296
     32 C         144.5137  142.7276  164.8943 C.ar    1  UNL1        0.1399
     33 F         144.3424  144.1883  165.1891 F       1  UNL1       -0.2042
     34 C         143.3700  142.0323  165.5714 C.ar    1  UNL1        0.0270
     35 C         142.9945  139.2581  169.9733 C.3     1  UNL1        0.0946
     36 C         142.7813  139.9444  168.6567 C.2     1  UNL1        0.2232
     37 O         143.1318  141.3856  168.8803 O.2     1  UNL1       -0.2751
     38 N         142.3061  139.1596  167.4700 N.am    1  UNL1       -0.3021
     39 H         142.1341  138.1940  167.5553 H       1  UNL1        0.1497
@<TRIPOS>BOND
     1    35    36    1
     2    36    37    2
     3    36    38   am
     4    38    27    1
     5    27    26    1
     6    26    25    1
     7    25     1    1
     8     1     2    1
     9     2     3    1
    10     3     4    1
    11     5     4    1
    12     5     6    1
    13     6     7    1
    14     7     9    1
    15     9    10   ar
    16    10    11    1
    17    10    12   ar
    18    12    13   ar
    19    13    14   ar
    20    14    15    1
    21    15    16    1
    22    16    17    1
    23    17    19    1
    24    19    20   ar
    25    20    21   ar
    26    21    22   ar
    27    22    23   ar
    28    23    24   ar
    29    17    18    1
    30     7     8    1
    31    27    28    1
    32    28    29   ar
    33    29    30   ar
    34    30    31   ar
    35    31    32   ar
    36    32    33    1
    37    32    34   ar
    38     5     1    1
    39    14     9   ar
    40    24    19   ar
    41    34    28   ar
    42     8     2    1
    43    18    13    1
    44    38    39    1
@<TRIPOS>MOLECULE
*****
 39 44 0 0 0
SMALL
GASTEIGER

@<TRIPOS>ATOM
      1 N         142.8500  140.4150  167.2310 N.3     1  UNL1       -0.2750
      2 C         142.6544  141.3921  168.3522 C.3     1  UNL1        0.0594
      3 C         142.5257  140.6140  169.6281 C.3     1  UNL1        0.0174
      4 C         142.6417  139.1560  169.2955 C.3     1  UNL1        0.0174
      5 C         142.8421  139.0329  167.8140 C.3     1  UNL1        0.0594
      6 C         143.0284  139.2112  166.3265 C.3     1  UNL1        0.0386
      7 C         143.0144  140.6460  165.8896 C.3     1  UNL1        0.0890
      8 C         142.8274  141.7366  166.9025 C.3     1  UNL1        0.0386
      9 N         143.1874  140.9905  164.4400 N.ar    1  UNL1       -0.3202
     10 C         143.7889  142.2539  163.8997 C.ar    1  UNL1        0.1201
     11 C         144.3231  143.3947  164.7141 C.3     1  UNL1        0.0718
     12 N         143.7625  142.1762  162.4019 N.ar    1  UNL1       -0.2339
     13 C         143.1447  140.8648  162.0166 C.ar    1  UNL1        0.0919
     14 C         142.7892  140.1319  163.2762 C.ar    1  UNL1        0.0549
     15 C         142.1489  138.7776  163.2007 C.3     1  UNL1        0.0665
     16 C         141.8641  138.1561  161.8657 C.3     1  UNL1        0.0988
     17 N         142.2195  138.8889  160.6060 N.pl3   1  UNL1       -0.2861
     18 C         142.8598  140.2432  160.6815 C.3     1  UNL1        0.1395
     19 C         141.9346  138.2673  159.2709 C.ar    1  UNL1        0.1514
     20 C         140.5726  138.4005  158.6569 C.ar    1  UNL1        0.1331
     21 N         140.2877  137.7789  157.3217 N.ar    1  UNL1       -0.2378
     22 C         141.3649  137.0241  156.6007 C.ar    1  UNL1        0.1196
     23 C         142.7270  136.8909  157.2148 C.ar    1  UNL1        0.1210
     24 N         143.0119  137.5125  158.5498 N.ar    1  UNL1       -0.2259
     25 C         143.0230  140.7594  165.7814 C.3     1  UNL1        0.0741
     26 C         141.8440  140.7187  164.8550 C.3     1  UNL1        0.0414
     27 C         140.5185  141.2589  165.3035 C.3     1  UNL1        0.0955
     28 C         139.9997  142.5445  164.7306 C.ar    1  UNL1       -0.0022
     29 C         140.1120  142.8087  163.2584 C.ar    1  UNL1       -0.0025
     30 C         139.5933  144.0942  162.6854 C.ar    1  UNL1        0.0020
     31 C         138.9622  145.1155  163.5847 C.ar    1  UNL1        0.0296
     32 C         138.8498  144.8512  165.0569 C.ar    1  UNL1        0.1399
     33 F         138.2942  145.6256  166.2152 F       1  UNL1       -0.2042
     34 C         139.3686  143.5657  165.6299 C.ar    1  UNL1        0.0270
     35 C         137.9698  138.6781  166.9140 C.3     1  UNL1        0.0946
     36 C         138.7765  139.4235  165.8925 C.2     1  UNL1        0.2232
     37 O         138.4086  138.8327  164.5638 O.2     1  UNL1       -0.2751
     38 N         139.7117  140.5136  166.3251 N.am    1  UNL1       -0.3021
     39 H         139.7961  140.7398  167.2795 H       1  UNL1        0.1497
@<TRIPOS>BOND
     1    35    36    1
     2    36    37    2
     3    36    38   am
     4    38    27    1
     5    27    26    1
     6    26    25    1
     7    25     1    1
     8     1     2    1
     9     2     3    1
    10     3     4    1
    11     5     4    1
    12     5     6    1
    13     6     7    1
    14     7     9    1
    15     9    10   ar
    16    10    11    1
    17    10    12   ar
    18    12    13   ar
    19    13    14   ar
    20    14    15    1
    21    15    16    1
    22    16    17    1
    23    17    19    1
    24    19    20   ar
    25    20    21   ar
    26    21    22   ar
    27    22    23   ar
    28    23    24   ar
    29    17    18    1
    30     7     8    1
    31    27    28    1
    32    28    29   ar
    33    29    30   ar
    34    30    31   ar
    35    31    32   ar
    36    32    33    1
    37    32    34   ar
    38     5     1    1
    39    14     9   ar
    40    24    19   ar
    41    34    28   ar
    42     8     2    1
    43    18    13    1
    44    38    39    1
@<TRIPOS>MOLECULE
*****
 39 44 0 0 0
SMALL
GASTEIGER

@<TRIPOS>ATOM
      1 N         142.8823  141.0203  165.8053 N.3     1  UNL1       -0.2750
      2 C         142.9595  139.5541  166.1126 C.3     1  UNL1        0.0594
      3 C         142.7535  139.3782  167.5880 C.3     1  UNL1        0.0174
      4 C         142.5490  140.7357  168.1925 C.3     1  UNL1        0.0174
      5 C         142.6286  141.7505  167.0908 C.3     1  UNL1        0.0594
      6 C         142.7555  142.5313  165.8048 C.3     1  UNL1        0.0386
      7 C         143.0076  141.6688  164.6039 C.3     1  UNL1        0.0890
      8 C         143.1097  140.1801  164.7578 C.3     1  UNL1        0.0386
      9 N         143.1578  142.2948  163.2490 N.ar    1  UNL1       -0.3202
     10 C         143.0585  143.7589  162.9384 C.ar    1  UNL1        0.1201
     11 C         142.7916  144.8541  163.9280 C.3     1  UNL1        0.0718
     12 N         143.2730  143.9354  161.4643 N.ar    1  UNL1       -0.2339
     13 C         143.5048  142.5805  160.8640 C.ar    1  UNL1        0.0919
     14 C         143.4336  141.5665  161.9670 C.ar    1  UNL1        0.0549
     15 C         143.6292  140.1110  161.6616 C.3     1  UNL1        0.0665
     16 C         143.8959  139.6696  160.2531 C.3     1  UNL1        0.0988
     17 N         143.9671  140.6836  159.1500 N.pl3   1  UNL1       -0.2861
     18 C         143.7716  142.1391  159.4555 C.3     1  UNL1        0.1395
     19 C         144.2339  140.2421  157.7414 C.ar    1  UNL1        0.1514
     20 C         145.1991  141.0075  156.8856 C.ar    1  UNL1        0.1331
     21 N         145.4658  140.5660  155.4770 N.ar    1  UNL1       -0.2378
     22 C         144.7673  139.3591  154.9244 C.ar    1  UNL1        0.1196
     23 C         143.8021  138.5937  155.7803 C.ar    1  UNL1        0.1210
     24 N         143.5354  139.0352  157.1888 N.ar    1  UNL1       -0.2259
     25 C         143.0325  141.6463  164.4505 C.3     1  UNL1        0.0741
     26 C         141.8892  141.6171  163.4800 C.3     1  UNL1        0.0414
     27 C         140.4787  141.7261  163.9789 C.3     1  UNL1        0.0955
     28 C         139.7939  140.5250  164.5605 C.ar    1  UNL1       -0.0022
     29 C         139.3477  140.5363  165.9925 C.ar    1  UNL1       -0.0025
     30 C         138.6629  139.3352  166.5742 C.ar    1  UNL1        0.0020
     31 C         138.4243  138.1228  165.7238 C.ar    1  UNL1        0.0296
     32 C         138.8706  138.1115  164.2918 C.ar    1  UNL1        0.1399
     33 F         138.7971  137.1013  163.1854 F       1  UNL1       -0.2042
     34 C         139.5554  139.3126  163.7101 C.ar    1  UNL1        0.0270
     35 C         137.6754  144.4155  163.1676 C.3     1  UNL1        0.0946
     36 C         138.4010  143.1053  163.2504 C.2     1  UNL1        0.2232
     37 O         137.5029  142.0937  162.6024 O.2     1  UNL1       -0.2751
     38 N         139.7531  143.0363  163.8961 N.am    1  UNL1       -0.3021
     39 H         140.1643  143.8509  164.2656 H       1  UNL1        0.1497
@<TRIPOS>BOND
     1    35    36    1
     2    36    37    2
     3    36    38   am
     4    38    27    1
     5    27    26    1
     6    26    25    1
     7    25     1    1
     8     1     2    1
     9     2     3    1
    10     3     4    1
    11     5     4    1
    12     5     6    1
    13     6     7    1
    14     7     9    1
    15     9    10   ar
    16    10    11    1
    17    10    12   ar
    18    12    13   ar
    19    13    14   ar
    20    14    15    1
    21    15    16    1
    22    16    17    1
    23    17    19    1
    24    19    20   ar
    25    20    21   ar
    26    21    22   ar
    27    22    23   ar
    28    23    24   ar
    29    17    18    1
    30     7     8    1
    31    27    28    1
    32    28    29   ar
    33    29    30   ar
    34    30    31   ar
    35    31    32   ar
    36    32    33    1
    37    32    34   ar
    38     5     1    1
    39    14     9   ar
    40    24    19   ar
    41    34    28   ar
    42     8     2    1
    43    18    13    1
    44    38    39    1
@<TRIPOS>MOLECULE
*****
 39 44 0 0 0
SMALL
GASTEIGER

@<TRIPOS>ATOM
      1 N         142.5556  139.9601  164.4319 N.3     1  UNL1       -0.2750
      2 C         141.6706  138.7860  164.1345 C.3     1  UNL1        0.0594
      3 C         142.0230  137.6857  165.0912 C.3     1  UNL1        0.0174
      4 C         143.1257  138.1798  165.9799 C.3     1  UNL1        0.0174
      5 C         143.4549  139.5854  165.5726 C.3     1  UNL1        0.0594
      6 C         143.5683  140.9591  164.9567 C.3     1  UNL1        0.0386
      7 C         142.6073  141.1900  163.8284 C.3     1  UNL1        0.0890
      8 C         141.6584  140.1033  163.4173 C.3     1  UNL1        0.0386
      9 N         142.5951  142.5074  163.1113 N.ar    1  UNL1       -0.3202
     10 C         143.3013  143.7562  163.5491 C.ar    1  UNL1        0.1201
     11 C         144.1437  143.9069  164.7810 C.3     1  UNL1        0.0718
     12 N         143.0172  144.8278  162.5388 N.ar    1  UNL1       -0.2339
     13 C         142.1354  144.2413  161.4765 C.ar    1  UNL1        0.0919
     14 C         141.8745  142.8072  161.8303 C.ar    1  UNL1        0.0549
     15 C         141.0146  141.9596  160.9404 C.3     1  UNL1        0.0665
     16 C         140.4154  142.5461  159.6966 C.3     1  UNL1        0.0988
     17 N         140.6763  143.9803  159.3428 N.pl3   1  UNL1       -0.2861
     18 C         141.5363  144.8279  160.2327 C.3     1  UNL1        0.1395
     19 C         140.0771  144.5668  158.0989 C.ar    1  UNL1        0.1514
     20 C         139.2890  143.6978  157.1643 C.ar    1  UNL1        0.1331
     21 N         138.6898  144.2843  155.9205 N.ar    1  UNL1       -0.2378
     22 C         138.8788  145.7399  155.6114 C.ar    1  UNL1        0.1196
     23 C         139.6670  146.6090  156.5461 C.ar    1  UNL1        0.1210
     24 N         140.2661  146.0224  157.7898 N.ar    1  UNL1       -0.2259
     25 C         142.5434  141.2774  163.7148 C.3     1  UNL1        0.0741
     26 C         141.8268  142.4510  164.3141 C.3     1  UNL1        0.0414
     27 C         140.4718  142.2675  164.9308 C.3     1  UNL1        0.0955
     28 C         140.3507  141.9000  166.3800 C.ar    1  UNL1       -0.0022
     29 C         139.9286  140.5144  166.7697 C.ar    1  UNL1       -0.0025
     30 C         139.8075  140.1468  168.2189 C.ar    1  UNL1        0.0020
     31 C         140.1086  141.1650  169.2785 C.ar    1  UNL1        0.0296
     32 C         140.5308  142.5506  168.8888 C.ar    1  UNL1        0.1399
     33 F         140.8989  143.7834  169.6601 F       1  UNL1       -0.2042
     34 C         140.6519  142.9181  167.4396 C.ar    1  UNL1        0.0270
     35 C         137.6473  143.9957  162.7432 C.3     1  UNL1        0.0946
     36 C         138.8813  143.8117  163.5759 C.2     1  UNL1        0.2232
     37 O         139.5107  145.1686  163.6877 O.2     1  UNL1       -0.2751
     38 N         139.2378  142.4515  164.0982 N.am    1  UNL1       -0.3021
     39 H         138.6618  141.6795  163.8944 H       1  UNL1        0.1497
@<TRIPOS>BOND
     1    35    36    1
     2    36    37    2
     3    36    38   am
     4    38    27    1
     5    27    26    1
     6    26    25    1
     7    25     1    1
     8     1     2    1
     9     2     3    1
    10     3     4    1
    11     5     4    1
    12     5     6    1
    13     6     7    1
    14     7     9    1
    15     9    10   ar
    16    10    11    1
    17    10    12   ar
    18    12    13   ar
    19    13    14   ar
    20    14    15    1
    21    15    16    1
    22    16    17    1
    23    17    19    1
    24    19    20   ar
    25    20    21   ar
    26    21    22   ar
    27    22    23   ar
    28    23    24   ar
    29    17    18    1
    30     7     8    1
    31    27    28    1
    32    28    29   ar
    33    29    30   ar
    34    30    31   ar
    35    31    32   ar
    36    32    33    1
    37    32    34   ar
    38     5     1    1
    39    14     9   ar
    40    24    19   ar
    41    34    28   ar
    42     8     2    1
    43    18    13    1
    44    38    39    1
@<TRIPOS>MOLECULE
*****
 39 44 0 0 0
SMALL
GASTEIGER

@<TRIPOS>ATOM
      1 N         138.9930  140.8403  165.6180 N.3     1  UNL1       -0.2750
      2 C         139.8022  141.1986  166.8292 C.3     1  UNL1        0.0594
      3 C         139.5547  140.1547  167.8775 C.3     1  UNL1        0.0174
      4 C         138.5925  139.1512  167.3143 C.3     1  UNL1        0.0174
      5 C         138.2454  139.5748  165.9179 C.3     1  UNL1        0.0594
      6 C         138.0834  140.2320  164.5684 C.3     1  UNL1        0.0386
      7 C         138.8904  141.4868  164.4134 C.3     1  UNL1        0.0890
      8 C         139.7499  141.9701  165.5439 C.3     1  UNL1        0.0386
      9 N         138.8380  142.2584  163.1281 N.ar    1  UNL1       -0.3202
     10 C         139.0356  143.7378  162.9792 C.ar    1  UNL1        0.1201
     11 C         139.3201  144.7055  164.0895 C.3     1  UNL1        0.0718
     12 N         138.8986  144.0797  161.5252 N.ar    1  UNL1       -0.2339
     13 C         138.6164  142.8116  160.7754 C.ar    1  UNL1        0.0919
     14 C         138.5790  141.6859  161.7661 C.ar    1  UNL1        0.0549
     15 C         138.3138  140.2851  161.3000 C.3     1  UNL1        0.0665
     16 C         138.0861  140.0099  159.8431 C.3     1  UNL1        0.0988
     17 N         138.1236  141.1355  158.8524 N.pl3   1  UNL1       -0.2861
     18 C         138.3887  142.5364  159.3186 C.3     1  UNL1        0.1395
     19 C         137.8958  140.8603  157.3955 C.ar    1  UNL1        0.1514
     20 C         137.0363  141.7831  156.5834 C.ar    1  UNL1        0.1331
     21 N         136.8086  141.5078  155.1265 N.ar    1  UNL1       -0.2378
     22 C         137.4404  140.3098  154.4818 C.ar    1  UNL1        0.1196
     23 C         138.3000  139.3870  155.2941 C.ar    1  UNL1        0.1210
     24 N         138.5277  139.6623  156.7509 N.ar    1  UNL1       -0.2259
     25 C         138.9407  141.6118  164.3328 C.3     1  UNL1        0.0741
     26 C         140.1852  141.7922  163.5151 C.3     1  UNL1        0.0414
     27 C         141.2708  140.7581  163.5632 C.3     1  UNL1        0.0955
     28 C         142.7044  141.1810  163.6889 C.ar    1  UNL1       -0.0022
     29 C         143.7600  140.5085  162.8622 C.ar    1  UNL1       -0.0025
     30 C         145.1936  140.9313  162.9878 C.ar    1  UNL1        0.0020
     31 C         145.5717  142.0267  163.9402 C.ar    1  UNL1        0.0296
     32 C         144.5161  142.6993  164.7669 C.ar    1  UNL1        0.1399
     33 F         144.5353  143.7971  165.7890 F       1  UNL1       -0.2042
     34 C         143.0825  142.2765  164.6413 C.ar    1  UNL1        0.0270
     35 C         140.9792  136.9164  164.5150 C.3     1  UNL1        0.0946
     36 C         141.3273  138.3733  164.5926 C.2     1  UNL1        0.2232
     37 O         142.0656  138.5537  165.8857 O.2     1  UNL1       -0.2751
     38 N         140.9227  139.3012  163.4856 N.am    1  UNL1       -0.3021
     39 H         140.4286  138.9538  162.7081 H       1  UNL1        0.1497
@<TRIPOS>BOND
     1    35    36    1
     2    36    37    2
     3    36    38   am
     4    38    27    1
     5    27    26    1
     6    26    25    1
     7    25     1    1
     8     1     2    1
     9     2     3    1
    10     3     4    1
    11     5     4    1
    12     5     6    1
    13     6     7    1
    14     7     9    1
    15     9    10   ar
    16    10    11    1
    17    10    12   ar
    18    12    13   ar
    19    13    14   ar
    20    14    15    1
    21    15    16    1
    22    16    17    1
    23    17    19    1
    24    19    20   ar
    25    20    21   ar
    26    21    22   ar
    27    22    23   ar
    28    23    24   ar
    29    17    18    1
    30     7     8    1
    31    27    28    1
    32    28    29   ar
    33    29    30   ar
    34    30    31   ar
    35    31    32   ar
    36    32    33    1
    37    32    34   ar
    38     5     1    1
    39    14     9   ar
    40    24    19   ar
    41    34    28   ar
    42     8     2    1
    43    18    13    1
    44    38    39    1
@<TRIPOS>MOLECULE
*****
 39 44 0 0 0
SMALL
GASTEIGER

@<TRIPOS>ATOM
      1 N         140.9721  139.6976  166.3394 N.3     1  UNL1       -0.2750
      2 C         139.5059  139.7613  166.6498 C.3     1  UNL1        0.0594
      3 C         139.3527  139.9259  168.1328 C.3     1  UNL1        0.0174
      4 C         140.7242  139.9640  168.7391 C.3     1  UNL1        0.0174
      5 C         141.7250  139.8228  167.6307 C.3     1  UNL1        0.0594
      6 C         142.4880  139.6664  166.3374 C.3     1  UNL1        0.0386
      7 C         141.6037  139.5531  165.1312 C.3     1  UNL1        0.0890
      8 C         140.1125  139.6005  165.2874 C.3     1  UNL1        0.0386
      9 N         142.2104  139.3923  163.7688 N.ar    1  UNL1       -0.3202
     10 C         143.6762  139.3956  163.4504 C.ar    1  UNL1        0.1201
     11 C         144.7927  139.5601  164.4385 C.3     1  UNL1        0.0718
     12 N         143.8294  139.2053  161.9704 N.ar    1  UNL1       -0.2339
     13 C         142.4583  139.0846  161.3742 C.ar    1  UNL1        0.0919
     14 C         141.4577  139.2002  162.4856 C.ar    1  UNL1        0.0549
     15 C         139.9904  139.1155  162.1857 C.3     1  UNL1        0.0665
     16 C         139.5239  138.9152  160.7743 C.3     1  UNL1        0.0988
     17 N         140.5245  138.7996  159.6628 N.pl3   1  UNL1       -0.2861
     18 C         141.9917  138.8843  159.9627 C.3     1  UNL1        0.1395
     19 C         140.0578  138.5993  158.2513 C.ar    1  UNL1        0.1514
     20 C         139.0074  139.5009  157.6736 C.ar    1  UNL1        0.1331
     21 N         138.5408  139.3006  156.2621 N.ar    1  UNL1       -0.2378
     22 C         139.1245  138.1987  155.4284 C.ar    1  UNL1        0.1196
     23 C         140.1750  137.2971  156.0062 C.ar    1  UNL1        0.1210
     24 N         140.6416  137.4974  157.4176 N.ar    1  UNL1       -0.2259
     25 C         141.5787  139.5368  164.9771 C.3     1  UNL1        0.0741
     26 C         141.7367  140.7293  164.0810 C.3     1  UNL1        0.0414
     27 C         141.5217  142.1104  164.6253 C.3     1  UNL1        0.0955
     28 C         140.2517  142.8478  164.3198 C.ar    1  UNL1       -0.0022
     29 C         139.5183  142.5797  163.0391 C.ar    1  UNL1       -0.0025
     30 C         138.2483  143.3170  162.7335 C.ar    1  UNL1        0.0020
     31 C         137.7116  144.3224  163.7088 C.ar    1  UNL1        0.0296
     32 C         138.4450  144.5905  164.9895 C.ar    1  UNL1        0.1399
     33 F         138.2041  145.5005  166.1574 F       1  UNL1       -0.2042
     34 C         139.7150  143.8532  165.2951 C.ar    1  UNL1        0.0270
     35 C         144.9215  143.8492  165.7060 C.3     1  UNL1        0.0946
     36 C         143.8664  143.2055  164.8561 C.2     1  UNL1        0.2232
     37 O         144.4214  143.1717  163.4630 O.2     1  UNL1       -0.2751
     38 N         142.5768  142.7542  165.4752 N.am    1  UNL1       -0.3021
     39 H         142.4229  142.8805  166.4393 H       1  UNL1        0.1497
@<TRIPOS>BOND
     1    35    36    1
     2    36    37    2
     3    36    38   am
     4    38    27    1
     5    27    26    1
     6    26    25    1
     7    25     1    1
     8     1     2    1
     9     2     3    1
    10     3     4    1
    11     5     4    1
    12     5     6    1
    13     6     7    1
    14     7     9    1
    15     9    10   ar
    16    10    11    1
    17    10    12   ar
    18    12    13   ar
    19    13    14   ar
    20    14    15    1
    21    15    16    1
    22    16    17    1
    23    17    19    1
    24    19    20   ar
    25    20    21   ar
    26    21    22   ar
    27    22    23   ar
    28    23    24   ar
    29    17    18    1
    30     7     8    1
    31    27    28    1
    32    28    29   ar
    33    29    30   ar
    34    30    31   ar
    35    31    32   ar
    36    32    33    1
    37    32    34   ar
    38     5     1    1
    39    14     9   ar
    40    24    19   ar
    41    34    28   ar
    42     8     2    1
    43    18    13    1
    44    38    39    1
