@<TRIPOS>MOLECULE
*****
 31 33 0 0 0
SMALL
GASTEIGER

@<TRIPOS>ATOM
      1 C         140.6676  141.0577  170.0451 C.3     1  UNL1        0.0975
      2 C         140.6184  141.7048  171.3975 C.3     1  UNL1        0.0781
      3 N         141.9718  142.2848  171.6834 N.3     1  UNL1       -0.2968
      4 C         142.8575  141.9961  170.5077 C.3     1  UNL1        0.0735
      5 C         142.0514  141.2378  169.4952 C.3     1  UNL1        0.0481
      6 H         142.3613  141.8570  172.5235 H       1  UNL1        0.1233
      7 C         142.5430  140.7459  168.1662 C.ar    1  UNL1       -0.0184
      8 C         142.6938  141.7032  167.0212 C.ar    1  UNL1       -0.0041
      9 C         143.1853  141.2113  165.6921 C.ar    1  UNL1        0.0058
     10 C         143.5261  139.7621  165.5079 C.ar    1  UNL1        0.0988
     11 C         143.3752  138.8049  166.6529 C.ar    1  UNL1        0.1437
     12 F         143.7159  137.3557  166.4688 F       1  UNL1       -0.2042
     13 C         142.8837  139.2968  167.9819 C.ar    1  UNL1        0.0254
     14 C         144.0176  139.2702  164.1789 C.3     1  UNL1        0.4207
     15 F         144.5090  138.7783  162.8499 F       1  UNL1       -0.1658
     16 F         145.3573  139.8903  164.4449 F       1  UNL1       -0.1658
     17 F         142.6778  138.6501  163.9129 F       1  UNL1       -0.1658
     18 N         139.6181  140.0362  167.8991 N.am    1  UNL1       -0.3004
     19 C         139.5322  140.3541  169.3626 C.2     1  UNL1        0.2240
     20 O         138.3109  139.9684  170.1434 O.2     1  UNL1       -0.2750
     21 H         140.4196  140.2894  167.3867 H       1  UNL1        0.1497
     22 C         138.4828  139.3326  167.2166 C.3     1  UNL1        0.1163
     23 C         138.3823  139.0540  162.7263 C.ar    1  UNL1        0.0479
     24 C         138.8009  137.8670  163.5422 C.ar    1  UNL1        0.0142
     25 C         138.8344  137.9599  165.0390 C.ar    1  UNL1       -0.0014
     26 C         138.4493  139.2398  165.7198 C.ar    1  UNL1       -0.0025
     27 C         138.0307  140.4268  164.9039 C.ar    1  UNL1       -0.0014
     28 C         137.9973  140.3339  163.4071 C.ar    1  UNL1        0.0142
     29 C         137.2862  139.6846  160.4568 C.3     1  UNL1        0.1122
     30 N         138.3489  138.9611  161.2296 N.pl3   1  UNL1       -0.3041
     31 C         139.3781  138.1448  160.5056 C.3     1  UNL1        0.1122
@<TRIPOS>BOND
     1    29    30    1
     2    30    31    1
     3    30    23    1
     4    23    24   ar
     5    24    25   ar
     6    25    26   ar
     7    26    22    1
     8    22    18    1
     9    18    19   am
    10    19    20    2
    11     1    19    1
    12     1     2    1
    13     2     3    1
    14     3     4    1
    15     4     5    1
    16     5     7    1
    17     7     8   ar
    18     8     9   ar
    19     9    10   ar
    20    10    14    1
    21    14    15    1
    22    14    16    1
    23    14    17    1
    24    10    11   ar
    25    11    12    1
    26    11    13   ar
    27    26    27   ar
    28    27    28   ar
    29    28    23   ar
    30     5     1    1
    31    13     7   ar
    32    18    21    1
    33     3     6    1
@<TRIPOS>MOLECULE
*****
 31 33 0 0 0
SMALL
GASTEIGER

@<TRIPOS>ATOM
      1 C         140.5191  141.0851  170.0051 C.3     1  UNL1        0.0975
      2 C         140.8080  141.0578  171.4768 C.3     1  UNL1        0.0781
      3 N         141.9399  142.0049  171.7446 N.3     1  UNL1       -0.2968
      4 C         142.3506  142.6176  170.4384 C.3     1  UNL1        0.0735
      5 C         141.4725  142.0491  169.3634 C.3     1  UNL1        0.0481
      6 H         142.7261  141.4984  172.1517 H       1  UNL1        0.1233
      7 C         141.5365  142.3856  167.9030 C.ar    1  UNL1       -0.0184
      8 C         140.3412  142.9775  167.2167 C.ar    1  UNL1       -0.0041
      9 C         140.4053  143.3140  165.7563 C.ar    1  UNL1        0.0058
     10 C         141.6645  143.0586  164.9822 C.ar    1  UNL1        0.0988
     11 C         142.8597  142.4667  165.6686 C.ar    1  UNL1        0.1437
     12 F         144.1190  142.2112  164.8946 F       1  UNL1       -0.2042
     13 C         142.7957  142.1302  167.1290 C.ar    1  UNL1        0.0254
     14 C         141.7286  143.3951  163.5219 C.3     1  UNL1        0.4207
     15 F         141.7927  143.7316  162.0616 F       1  UNL1       -0.1658
     16 F         140.8709  142.2046  163.2100 F       1  UNL1       -0.1658
     17 F         142.5863  144.5856  163.8338 F       1  UNL1       -0.1658
     18 N         139.6632  139.8752  167.8711 N.am    1  UNL1       -0.3004
     19 C         139.4623  140.2883  169.2991 C.2     1  UNL1        0.2240
     20 O         138.2047  139.9046  170.0210 O.2     1  UNL1       -0.2750
     21 H         140.4886  140.1270  167.3973 H       1  UNL1        0.1497
     22 C         138.6065  139.0784  167.1651 C.3     1  UNL1        0.1163
     23 C         138.4550  139.0283  162.6680 C.ar    1  UNL1        0.0479
     24 C         138.1095  140.2816  163.4161 C.ar    1  UNL1        0.0142
     25 C         138.1600  140.2983  164.9152 C.ar    1  UNL1       -0.0014
     26 C         138.5560  139.0617  165.6661 C.ar    1  UNL1       -0.0025
     27 C         138.9015  137.8084  164.9180 C.ar    1  UNL1       -0.0014
     28 C         138.8510  137.7917  163.4189 C.ar    1  UNL1        0.0142
     29 C         137.3228  139.7585  160.4466 C.3     1  UNL1        0.1122
     30 N         138.4045  139.0116  161.1689 N.pl3   1  UNL1       -0.3041
     31 C         139.4358  138.2480  160.3922 C.3     1  UNL1        0.1122
@<TRIPOS>BOND
     1    29    30    1
     2    30    31    1
     3    30    23    1
     4    23    24   ar
     5    24    25   ar
     6    25    26   ar
     7    26    22    1
     8    22    18    1
     9    18    19   am
    10    19    20    2
    11     1    19    1
    12     1     2    1
    13     2     3    1
    14     3     4    1
    15     4     5    1
    16     5     7    1
    17     7     8   ar
    18     8     9   ar
    19     9    10   ar
    20    10    14    1
    21    14    15    1
    22    14    16    1
    23    14    17    1
    24    10    11   ar
    25    11    12    1
    26    11    13   ar
    27    26    27   ar
    28    27    28   ar
    29    28    23   ar
    30     5     1    1
    31    13     7   ar
    32    18    21    1
    33     3     6    1
@<TRIPOS>MOLECULE
*****
 31 33 0 0 0
SMALL
GASTEIGER

@<TRIPOS>ATOM
      1 C         141.7001  140.5508  169.8641 C.3     1  UNL1        0.0975
      2 C         141.9207  140.8654  171.3141 C.3     1  UNL1        0.0781
      3 N         140.9507  141.9396  171.7081 N.3     1  UNL1       -0.2968
      4 C         140.1306  142.2889  170.5016 C.3     1  UNL1        0.0735
      5 C         140.5938  141.4306  169.3620 C.3     1  UNL1        0.0481
      6 H         141.4586  142.7629  172.0317 H       1  UNL1        0.1233
      7 C         140.0467  141.4488  167.9655 C.ar    1  UNL1       -0.0184
      8 C         140.2331  142.6618  167.1028 C.ar    1  UNL1       -0.0041
      9 C         139.6860  142.6801  165.7063 C.ar    1  UNL1        0.0058
     10 C         138.9525  141.4855  165.1723 C.ar    1  UNL1        0.0988
     11 C         138.7661  140.2726  166.0350 C.ar    1  UNL1        0.1437
     12 F         138.0327  139.0780  165.5012 F       1  UNL1       -0.2042
     13 C         139.3132  140.2544  167.4315 C.ar    1  UNL1        0.0254
     14 C         138.4054  141.5038  163.7758 C.3     1  UNL1        0.4207
     15 F         137.8583  141.5220  162.3793 F       1  UNL1       -0.1658
     16 F         137.3329  142.4591  164.2085 F       1  UNL1       -0.1658
     17 F         139.4779  140.5483  163.3432 F       1  UNL1       -0.1658
     18 N         142.6627  139.7491  167.5880 N.am    1  UNL1       -0.3004
     19 C         142.4536  139.5348  169.0578 C.2     1  UNL1        0.2240
     20 O         142.9980  138.3047  169.7213 O.2     1  UNL1       -0.2750
     21 H         142.3054  140.5565  167.1525 H       1  UNL1        0.1497
     22 C         143.4161  138.7331  166.7817 C.3     1  UNL1        0.1163
     23 C         142.4717  138.1742  162.4175 C.ar    1  UNL1        0.0479
     24 C         143.7545  138.8339  162.8288 C.ar    1  UNL1        0.0142
     25 C         144.0693  139.0202  164.2835 C.ar    1  UNL1       -0.0014
     26 C         143.1013  138.5468  165.3270 C.ar    1  UNL1       -0.0025
     27 C         141.8185  137.8872  164.9157 C.ar    1  UNL1       -0.0014
     28 C         141.5037  137.7009  163.4610 C.ar    1  UNL1        0.0142
     29 C         143.1396  137.2960  160.0654 C.3     1  UNL1        0.1122
     30 N         142.1568  137.9879  160.9628 N.pl3   1  UNL1       -0.3041
     31 C         140.8592  138.4935  160.4056 C.3     1  UNL1        0.1122
@<TRIPOS>BOND
     1    29    30    1
     2    30    31    1
     3    30    23    1
     4    23    24   ar
     5    24    25   ar
     6    25    26   ar
     7    26    22    1
     8    22    18    1
     9    18    19   am
    10    19    20    2
    11     1    19    1
    12     1     2    1
    13     2     3    1
    14     3     4    1
    15     4     5    1
    16     5     7    1
    17     7     8   ar
    18     8     9   ar
    19     9    10   ar
    20    10    14    1
    21    14    15    1
    22    14    16    1
    23    14    17    1
    24    10    11   ar
    25    11    12    1
    26    11    13   ar
    27    26    27   ar
    28    27    28   ar
    29    28    23   ar
    30     5     1    1
    31    13     7   ar
    32    18    21    1
    33     3     6    1
@<TRIPOS>MOLECULE
*****
 31 33 0 0 0
SMALL
GASTEIGER

@<TRIPOS>ATOM
      1 C         143.3736  139.6085  161.9314 C.3     1  UNL1        0.0975
      2 C         144.1771  139.3788  160.6857 C.3     1  UNL1        0.0781
      3 N         143.5480  138.2456  159.9307 N.3     1  UNL1       -0.2968
      4 C         142.3557  137.7749  160.7097 C.3     1  UNL1        0.0735
      5 C         142.2479  138.6173  161.9462 C.3     1  UNL1        0.0481
      6 H         144.2180  137.4832  159.8290 H       1  UNL1        0.1233
      7 C         141.1986  138.4906  163.0106 C.ar    1  UNL1       -0.0184
      8 C         139.8659  137.8856  162.6817 C.ar    1  UNL1       -0.0041
      9 C         138.8166  137.7589  163.7460 C.ar    1  UNL1        0.0058
     10 C         139.0999  138.2371  165.1393 C.ar    1  UNL1        0.0988
     11 C         140.4325  138.8421  165.4681 C.ar    1  UNL1        0.1437
     12 F         140.7158  139.3204  166.8613 F       1  UNL1       -0.2042
     13 C         141.4818  138.9688  164.4037 C.ar    1  UNL1        0.0254
     14 C         138.0506  138.1105  166.2036 C.3     1  UNL1        0.4207
     15 F         137.0013  137.9839  167.2680 F       1  UNL1       -0.1658
     16 F         138.1572  136.6160  166.1309 F       1  UNL1       -0.1658
     17 F         137.9439  139.6050  166.2764 F       1  UNL1       -0.1658
     18 N         142.7580  141.8493  163.0933 N.am    1  UNL1       -0.3004
     19 C         143.6477  140.6471  162.9784 C.2     1  UNL1        0.2240
     20 O         144.8115  140.4836  163.9105 O.2     1  UNL1       -0.2750
     21 H         141.9941  141.9566  162.4815 H       1  UNL1        0.1497
     22 C         143.0320  142.8879  164.1402 C.3     1  UNL1        0.1163
     23 C         141.4651  142.3353  168.3223 C.ar    1  UNL1        0.0479
     24 C         142.9378  142.2391  168.0543 C.ar    1  UNL1        0.0142
     25 C         143.4601  142.4233  166.6603 C.ar    1  UNL1       -0.0014
     26 C         142.5097  142.7037  165.5342 C.ar    1  UNL1       -0.0025
     27 C         141.0370  142.7998  165.8022 C.ar    1  UNL1       -0.0014
     28 C         140.5147  142.6156  167.1962 C.ar    1  UNL1        0.0142
     29 C         140.0555  143.1940  170.3286 C.3     1  UNL1        0.1122
     30 N         140.9428  142.1511  169.7163 N.pl3   1  UNL1       -0.3041
     31 C         141.3077  140.9240  170.4979 C.3     1  UNL1        0.1122
@<TRIPOS>BOND
     1    29    30    1
     2    30    31    1
     3    30    23    1
     4    23    24   ar
     5    24    25   ar
     6    25    26   ar
     7    26    22    1
     8    22    18    1
     9    18    19   am
    10    19    20    2
    11     1    19    1
    12     1     2    1
    13     2     3    1
    14     3     4    1
    15     4     5    1
    16     5     7    1
    17     7     8   ar
    18     8     9   ar
    19     9    10   ar
    20    10    14    1
    21    14    15    1
    22    14    16    1
    23    14    17    1
    24    10    11   ar
    25    11    12    1
    26    11    13   ar
    27    26    27   ar
    28    27    28   ar
    29    28    23   ar
    30     5     1    1
    31    13     7   ar
    32    18    21    1
    33     3     6    1
@<TRIPOS>MOLECULE
*****
 31 33 0 0 0
SMALL
GASTEIGER

@<TRIPOS>ATOM
      1 C         141.0697  141.9519  169.7249 C.3     1  UNL1        0.0975
      2 C         141.7197  142.0967  171.0690 C.3     1  UNL1        0.0781
      3 N         142.1597  140.7355  171.5201 N.3     1  UNL1       -0.2968
      4 C         141.7816  139.7495  170.4547 C.3     1  UNL1        0.0735
      5 C         141.1080  140.5013  169.3452 C.3     1  UNL1        0.0481
      6 H         141.6954  140.4941  172.3956 H       1  UNL1        0.1233
      7 C         140.5675  139.9068  168.0786 C.ar    1  UNL1       -0.0184
      8 C         139.0934  139.6728  167.9293 C.ar    1  UNL1       -0.0041
      9 C         138.5529  139.0783  166.6626 C.ar    1  UNL1        0.0058
     10 C         139.4865  138.7178  165.5452 C.ar    1  UNL1        0.0988
     11 C         140.9605  138.9518  165.6945 C.ar    1  UNL1        0.1437
     12 F         141.8942  138.5914  164.5772 F       1  UNL1       -0.2042
     13 C         141.5010  139.5463  166.9612 C.ar    1  UNL1        0.0254
     14 C         138.9460  138.1233  164.2786 C.3     1  UNL1        0.4207
     15 F         138.4056  137.5287  163.0119 F       1  UNL1       -0.1658
     16 F         139.3108  139.3743  163.5357 F       1  UNL1       -0.1658
     17 F         138.5812  136.8722  165.0214 F       1  UNL1       -0.1658
     18 N         140.3234  142.8963  167.4224 N.am    1  UNL1       -0.3004
     19 C         140.4842  143.0629  168.9044 C.2     1  UNL1        0.2240
     20 O         140.0594  144.3403  169.5660 O.2     1  UNL1       -0.2750
     21 H         140.6022  142.0579  166.9882 H       1  UNL1        0.1497
     22 C         139.7380  144.0072  166.6019 C.3     1  UNL1        0.1163
     23 C         139.4965  143.6123  162.1258 C.ar    1  UNL1        0.0479
     24 C         138.6601  144.6360  162.8346 C.ar    1  UNL1        0.0142
     25 C         138.7406  144.7676  164.3267 C.ar    1  UNL1       -0.0014
     26 C         139.6575  143.8756  165.1099 C.ar    1  UNL1       -0.0025
     27 C         140.4938  142.8518  164.4011 C.ar    1  UNL1       -0.0014
     28 C         140.4133  142.7202  162.9091 C.ar    1  UNL1        0.0142
     29 C         138.5111  142.4543  160.0192 C.3     1  UNL1        0.1122
     30 N         139.4160  143.4806  160.6338 N.pl3   1  UNL1       -0.3041
     31 C         140.2404  144.3752  159.7564 C.3     1  UNL1        0.1122
@<TRIPOS>BOND
     1    29    30    1
     2    30    31    1
     3    30    23    1
     4    23    24   ar
     5    24    25   ar
     6    25    26   ar
     7    26    22    1
     8    22    18    1
     9    18    19   am
    10    19    20    2
    11     1    19    1
    12     1     2    1
    13     2     3    1
    14     3     4    1
    15     4     5    1
    16     5     7    1
    17     7     8   ar
    18     8     9   ar
    19     9    10   ar
    20    10    14    1
    21    14    15    1
    22    14    16    1
    23    14    17    1
    24    10    11   ar
    25    11    12    1
    26    11    13   ar
    27    26    27   ar
    28    27    28   ar
    29    28    23   ar
    30     5     1    1
    31    13     7   ar
    32    18    21    1
    33     3     6    1
@<TRIPOS>MOLECULE
*****
 31 33 0 0 0
SMALL
GASTEIGER

@<TRIPOS>ATOM
      1 C         141.9690  140.6523  168.4543 C.3     1  UNL1        0.0975
      2 C         142.4685  140.3782  169.8419 C.3     1  UNL1        0.0781
      3 N         143.4495  141.4542  170.2024 N.3     1  UNL1       -0.2968
      4 C         143.5562  142.3933  169.0376 C.3     1  UNL1        0.0735
      5 C         142.6413  141.8977  167.9572 C.3     1  UNL1        0.0481
      6 H         144.3610  141.0402  170.3980 H       1  UNL1        0.1233
      7 C         142.4348  142.5355  166.6154 C.ar    1  UNL1       -0.0184
      8 C         141.0505  142.8885  166.1578 C.ar    1  UNL1       -0.0041
      9 C         140.8441  143.5263  164.8160 C.ar    1  UNL1        0.0058
     10 C         142.0218  143.8113  163.9317 C.ar    1  UNL1        0.0988
     11 C         143.4060  143.4583  164.3893 C.ar    1  UNL1        0.1437
     12 F         144.5837  143.7432  163.5052 F       1  UNL1       -0.2042
     13 C         143.6124  142.8205  165.7312 C.ar    1  UNL1        0.0254
     14 C         141.8153  144.4491  162.5899 C.3     1  UNL1        0.4207
     15 F         141.6089  145.0869  161.2481 F       1  UNL1       -0.1658
     16 F         141.6063  145.7779  163.2537 F       1  UNL1       -0.1658
     17 F         142.0244  143.1203  161.9261 F       1  UNL1       -0.1658
     18 N         139.5148  139.9056  168.0426 N.am    1  UNL1       -0.3004
     19 C         140.9723  139.8260  167.6968 C.2     1  UNL1        0.2240
     20 O         141.4329  138.9202  166.5935 O.2     1  UNL1       -0.2750
     21 H         139.2125  140.5001  168.7667 H       1  UNL1        0.1497
     22 C         138.5181  139.0794  167.2851 C.3     1  UNL1        0.1163
     23 C         138.5169  139.1213  162.7853 C.ar    1  UNL1        0.0479
     24 C         138.7890  137.8441  163.5234 C.ar    1  UNL1        0.0142
     25 C         138.7894  137.8302  165.0233 C.ar    1  UNL1       -0.0014
     26 C         138.5177  139.0933  165.7852 C.ar    1  UNL1       -0.0025
     27 C         138.2455  140.3705  165.0471 C.ar    1  UNL1       -0.0014
     28 C         138.2451  140.3844  163.5472 C.ar    1  UNL1        0.0142
     29 C         137.4995  139.9506  160.5432 C.3     1  UNL1        0.1122
     30 N         138.5165  139.1352  161.2854 N.pl3   1  UNL1       -0.3041
     31 C         139.5330  138.3338  160.5276 C.3     1  UNL1        0.1122
@<TRIPOS>BOND
     1    29    30    1
     2    30    31    1
     3    30    23    1
     4    23    24   ar
     5    24    25   ar
     6    25    26   ar
     7    26    22    1
     8    22    18    1
     9    18    19   am
    10    19    20    2
    11     1    19    1
    12     1     2    1
    13     2     3    1
    14     3     4    1
    15     4     5    1
    16     5     7    1
    17     7     8   ar
    18     8     9   ar
    19     9    10   ar
    20    10    14    1
    21    14    15    1
    22    14    16    1
    23    14    17    1
    24    10    11   ar
    25    11    12    1
    26    11    13   ar
    27    26    27   ar
    28    27    28   ar
    29    28    23   ar
    30     5     1    1
    31    13     7   ar
    32    18    21    1
    33     3     6    1
@<TRIPOS>MOLECULE
*****
 31 33 0 0 0
SMALL
GASTEIGER

@<TRIPOS>ATOM
      1 C         140.4559  140.1006  169.0760 C.3     1  UNL1        0.0975
      2 C         140.2265  140.0514  170.5576 C.3     1  UNL1        0.0781
      3 N         141.5472  140.2572  171.2383 N.3     1  UNL1       -0.2968
      4 C         142.5929  140.4335  170.1773 C.3     1  UNL1        0.0735
      5 C         141.9184  140.3368  168.8410 C.3     1  UNL1        0.0481
      6 H         141.7707  139.4447  171.8130 H       1  UNL1        0.1233
      7 C         142.5888  140.4553  167.5045 C.ar    1  UNL1       -0.0184
      8 C         142.9283  139.2204  166.7235 C.ar    1  UNL1       -0.0041
      9 C         143.5986  139.3389  165.3869 C.ar    1  UNL1        0.0058
     10 C         143.9296  140.6923  164.8312 C.ar    1  UNL1        0.0988
     11 C         143.5902  141.9272  165.6121 C.ar    1  UNL1        0.1437
     12 F         143.9211  143.2806  165.0565 F       1  UNL1       -0.2042
     13 C         142.9198  141.8086  166.9487 C.ar    1  UNL1        0.0254
     14 C         144.6000  140.8109  163.4946 C.3     1  UNL1        0.4207
     15 F         145.2703  140.9294  162.1580 F       1  UNL1       -0.1658
     16 F         145.8822  141.1947  164.1718 F       1  UNL1       -0.1658
     17 F         143.3177  140.4271  162.8174 F       1  UNL1       -0.1658
     18 N         139.5748  140.6176  166.6872 N.am    1  UNL1       -0.3004
     19 C         139.4069  139.9415  168.0156 C.2     1  UNL1        0.2240
     20 O         138.1901  139.1064  168.2837 O.2     1  UNL1       -0.2750
     21 H         140.3734  141.1657  166.5113 H       1  UNL1        0.1497
     22 C         138.5259  140.4586  165.6268 C.3     1  UNL1        0.1163
     23 C         139.0600  142.4345  161.6193 C.ar    1  UNL1        0.0479
     24 C         140.1228  141.5201  162.1522 C.ar    1  UNL1        0.0142
     25 C         139.9448  140.8614  163.4881 C.ar    1  UNL1       -0.0014
     26 C         138.7039  141.1172  164.2910 C.ar    1  UNL1       -0.0025
     27 C         137.6410  142.0317  163.7580 C.ar    1  UNL1       -0.0014
     28 C         137.8191  142.6903  162.4222 C.ar    1  UNL1        0.0142
     29 C         140.1257  144.2951  160.1522 C.3     1  UNL1        0.1122
     30 N         139.2380  143.0931  160.2834 N.pl3   1  UNL1       -0.3041
     31 C         138.5284  142.5498  159.0788 C.3     1  UNL1        0.1122
@<TRIPOS>BOND
     1    29    30    1
     2    30    31    1
     3    30    23    1
     4    23    24   ar
     5    24    25   ar
     6    25    26   ar
     7    26    22    1
     8    22    18    1
     9    18    19   am
    10    19    20    2
    11     1    19    1
    12     1     2    1
    13     2     3    1
    14     3     4    1
    15     4     5    1
    16     5     7    1
    17     7     8   ar
    18     8     9   ar
    19     9    10   ar
    20    10    14    1
    21    14    15    1
    22    14    16    1
    23    14    17    1
    24    10    11   ar
    25    11    12    1
    26    11    13   ar
    27    26    27   ar
    28    27    28   ar
    29    28    23   ar
    30     5     1    1
    31    13     7   ar
    32    18    21    1
    33     3     6    1
@<TRIPOS>MOLECULE
*****
 31 33 0 0 0
SMALL
GASTEIGER

@<TRIPOS>ATOM
      1 C         141.3086  139.9729  168.9217 C.3     1  UNL1        0.0975
      2 C         141.3745  139.8461  170.4149 C.3     1  UNL1        0.0781
      3 N         139.9720  139.8826  170.9456 N.3     1  UNL1       -0.2968
      4 C         139.0393  140.0319  169.7803 C.3     1  UNL1        0.0735
      5 C         139.8654  140.0877  168.5295 C.3     1  UNL1        0.0481
      6 H         139.8625  140.6736  171.5802 H       1  UNL1        0.1233
      7 C         139.3403  140.2328  167.1320 C.ar    1  UNL1       -0.0184
      8 C         138.4912  139.1505  166.5337 C.ar    1  UNL1       -0.0041
      9 C         137.9662  139.2956  165.1361 C.ar    1  UNL1        0.0058
     10 C         138.2901  140.5228  164.3367 C.ar    1  UNL1        0.0988
     11 C         139.1392  141.6050  164.9350 C.ar    1  UNL1        0.1437
     12 F         139.4633  142.8323  164.1357 F       1  UNL1       -0.2042
     13 C         139.6643  141.4599  166.3326 C.ar    1  UNL1        0.0254
     14 C         137.7651  140.6679  162.9391 C.3     1  UNL1        0.4207
     15 F         137.2401  140.8130  161.5416 F       1  UNL1       -0.1658
     16 F         136.8521  141.7668  163.3962 F       1  UNL1       -0.1658
     17 F         138.6782  139.5690  162.4821 F       1  UNL1       -0.1658
     18 N         142.7585  138.7903  167.1191 N.am    1  UNL1       -0.3004
     19 C         142.4803  139.9830  167.9851 C.2     1  UNL1        0.2240
     20 O         143.3738  141.1858  167.9147 O.2     1  UNL1       -0.2750
     21 H         142.1720  138.0009  167.1653 H       1  UNL1        0.1497
     22 C         143.9301  138.8004  166.1825 C.3     1  UNL1        0.1163
     23 C         143.6525  140.9793  162.2550 C.ar    1  UNL1        0.0479
     24 C         144.9905  140.7526  162.8940 C.ar    1  UNL1        0.0142
     25 C         145.0830  140.0263  164.2032 C.ar    1  UNL1       -0.0014
     26 C         143.8376  139.5267  164.8734 C.ar    1  UNL1       -0.0025
     27 C         142.4996  139.7534  164.2344 C.ar    1  UNL1       -0.0014
     28 C         142.4071  140.4797  162.9252 C.ar    1  UNL1        0.0142
     29 C         143.6170  140.9396  159.6575 C.3     1  UNL1        0.1122
     30 N         143.5600  141.7056  160.9459 N.pl3   1  UNL1       -0.3041
     31 C         143.4105  143.1980  160.9251 C.3     1  UNL1        0.1122
@<TRIPOS>BOND
     1    29    30    1
     2    30    31    1
     3    30    23    1
     4    23    24   ar
     5    24    25   ar
     6    25    26   ar
     7    26    22    1
     8    22    18    1
     9    18    19   am
    10    19    20    2
    11     1    19    1
    12     1     2    1
    13     2     3    1
    14     3     4    1
    15     4     5    1
    16     5     7    1
    17     7     8   ar
    18     8     9   ar
    19     9    10   ar
    20    10    14    1
    21    14    15    1
    22    14    16    1
    23    14    17    1
    24    10    11   ar
    25    11    12    1
    26    11    13   ar
    27    26    27   ar
    28    27    28   ar
    29    28    23   ar
    30     5     1    1
    31    13     7   ar
    32    18    21    1
    33     3     6    1
@<TRIPOS>MOLECULE
*****
 31 33 0 0 0
SMALL
GASTEIGER

@<TRIPOS>ATOM
      1 C         139.8343  139.0726  161.0310 C.3     1  UNL1        0.0975
      2 C         139.6838  138.3765  159.7109 C.3     1  UNL1        0.0781
      3 N         138.8257  139.2348  158.8294 N.3     1  UNL1       -0.2968
      4 C         138.4459  140.4614  159.6048 C.3     1  UNL1        0.0735
      5 C         139.0692  140.3612  160.9655 C.3     1  UNL1        0.0481
      6 H         137.9862  138.7226  158.5588 H       1  UNL1        0.1233
      7 C         138.9486  141.3720  162.0671 C.ar    1  UNL1       -0.0184
      8 C         138.0078  141.1275  163.2096 C.ar    1  UNL1       -0.0041
      9 C         137.8872  142.1383  164.3112 C.ar    1  UNL1        0.0058
     10 C         138.7074  143.3937  164.2705 C.ar    1  UNL1        0.0988
     11 C         139.6481  143.6381  163.1280 C.ar    1  UNL1        0.1437
     12 F         140.4683  144.8933  163.0872 F       1  UNL1       -0.2042
     13 C         139.7687  142.6272  162.0264 C.ar    1  UNL1        0.0254
     14 C         138.5868  144.4045  165.3721 C.3     1  UNL1        0.4207
     15 F         138.4663  145.4153  166.4738 F       1  UNL1       -0.1658
     16 F         137.1889  144.7203  164.9293 F       1  UNL1       -0.1658
     17 F         139.9848  144.0886  165.8150 F       1  UNL1       -0.1658
     18 N         141.6609  139.4356  162.8426 N.am    1  UNL1       -0.3004
     19 C         140.6131  138.5686  162.2098 C.2     1  UNL1        0.2240
     20 O         140.3441  137.1976  162.7557 O.2     1  UNL1       -0.2750
     21 H         141.8374  140.3354  162.4843 H       1  UNL1        0.1497
     22 C         142.4397  138.9317  164.0213 C.3     1  UNL1        0.1163
     23 C         141.1756  140.0426  168.1948 C.ar    1  UNL1        0.0479
     24 C         140.2589  140.3085  167.0377 C.ar    1  UNL1        0.0142
     25 C         140.6803  139.9382  165.6465 C.ar    1  UNL1       -0.0014
     26 C         142.0184  139.3020  165.4125 C.ar    1  UNL1       -0.0025
     27 C         142.9351  139.0361  166.5696 C.ar    1  UNL1       -0.0014
     28 C         142.5137  139.4065  167.9607 C.ar    1  UNL1        0.0142
     29 C         139.2976  140.4626  169.9402 C.3     1  UNL1        0.1122
     30 N         140.7543  140.4129  169.5859 N.pl3   1  UNL1       -0.3041
     31 C         141.7896  140.7336  170.6229 C.3     1  UNL1        0.1122
@<TRIPOS>BOND
     1    29    30    1
     2    30    31    1
     3    30    23    1
     4    23    24   ar
     5    24    25   ar
     6    25    26   ar
     7    26    22    1
     8    22    18    1
     9    18    19   am
    10    19    20    2
    11     1    19    1
    12     1     2    1
    13     2     3    1
    14     3     4    1
    15     4     5    1
    16     5     7    1
    17     7     8   ar
    18     8     9   ar
    19     9    10   ar
    20    10    14    1
    21    14    15    1
    22    14    16    1
    23    14    17    1
    24    10    11   ar
    25    11    12    1
    26    11    13   ar
    27    26    27   ar
    28    27    28   ar
    29    28    23   ar
    30     5     1    1
    31    13     7   ar
    32    18    21    1
    33     3     6    1
