@<TRIPOS>MOLECULE
*****
 31 33 0 0 0
SMALL
GASTEIGER

@<TRIPOS>ATOM
      1 N         143.4302  143.4137  164.3468 N.am    1  UNL1       -0.2591
      2 C         143.2780  144.3771  163.2072 C.2     1  UNL1        0.3219
      3 O         144.3872  144.9122  162.3509 O.2     1  UNL1       -0.2510
      4 N         141.8218  144.7115  163.0743 N.am    1  UNL1       -0.1885
      5 C         141.0741  143.9547  164.1318 C.3     1  UNL1        0.1388
      6 C         142.0681  143.1526  164.9182 C.3     1  UNL1        0.1208
      7 C         141.7550  142.2483  166.0733 C.ar    1  UNL1       -0.0023
      8 C         140.4129  141.5845  166.1636 C.ar    1  UNL1        0.0005
      9 C         140.0998  140.6802  167.3187 C.ar    1  UNL1        0.0366
     10 C         141.1287  140.4396  168.3834 C.ar    1  UNL1        0.1387
     11 C         142.4707  141.1035  168.2930 C.ar    1  UNL1        0.0366
     12 C         142.7838  142.0078  167.1379 C.ar    1  UNL1        0.0005
     13 O         140.8156  139.5353  169.5384 O.3     1  UNL1       -0.4714
     14 C         140.0627  140.0647  170.7228 C.3     1  UNL1        0.2525
     15 N         141.2192  145.6396  162.0617 N.3     1  UNL1       -0.1073
     16 H         141.9605  146.2751  161.7668 H       1  UNL1        0.1715
     17 S         140.6003  145.0867  160.8121 S.O2    1  UNL1        0.0573
     18 C         139.9814  144.5338  159.5626 C.3     1  UNL1        0.1974
     19 O         141.9553  145.0152  160.1727 O.2     1  UNL1       -0.1561
     20 O         139.2454  145.1582  161.4515 O.2     1  UNL1       -0.1561
     21 C         144.7185  142.8162  164.8302 C.3     1  UNL1        0.0957
     22 C         145.4835  141.8718  163.9511 C.3     1  UNL1        0.0262
     23 C         145.3583  140.3908  164.1536 C.3     1  UNL1        0.0281
     24 C         141.2874  138.4993  164.4693 C.ar    1  UNL1        0.1387
     25 C         141.6129  139.3889  163.3063 C.ar    1  UNL1        0.0366
     26 C         142.9698  140.0194  163.2011 C.ar    1  UNL1       -0.0012
     27 C         144.0013  139.7603  164.2588 C.ar    1  UNL1       -0.0219
     28 C         143.6758  138.8706  165.4217 C.ar    1  UNL1       -0.0012
     29 C         142.3189  138.2401  165.5270 C.ar    1  UNL1        0.0366
     30 C         139.0788  137.7129  163.3496 C.3     1  UNL1        0.2525
     31 O         139.9304  137.8688  164.5745 O.3     1  UNL1       -0.4714
@<TRIPOS>BOND
     1    30    31    1
     2    31    24    1
     3    24    25   ar
     4    25    26   ar
     5    26    27   ar
     6    27    23    1
     7    23    22    1
     8    22    21    1
     9    21     1    1
    10     1     2   am
    11     2     3    2
    12     2     4   am
    13     4    15    1
    14    15    17    1
    15    17    18    1
    16    17    19    2
    17    17    20    2
    18     4     5    1
    19     5     6    1
    20     6     7    1
    21     7     8   ar
    22     8     9   ar
    23     9    10   ar
    24    10    13    1
    25    13    14    1
    26    10    11   ar
    27    11    12   ar
    28    27    28   ar
    29    28    29   ar
    30    29    24   ar
    31     6     1    1
    32    12     7   ar
    33    15    16    1
@<TRIPOS>MOLECULE
*****
 31 33 0 0 0
SMALL
GASTEIGER

@<TRIPOS>ATOM
      1 N         142.8410  143.0769  163.9583 N.am    1  UNL1       -0.2591
      2 C         143.1103  144.0838  162.8797 C.2     1  UNL1        0.3219
      3 O         144.4562  144.6186  162.4888 O.2     1  UNL1       -0.2510
      4 N         141.7975  144.4622  162.2605 N.am    1  UNL1       -0.1885
      5 C         140.7168  143.6891  162.9565 C.3     1  UNL1        0.1388
      6 C         141.3618  142.8329  164.0058 C.3     1  UNL1        0.1208
      7 C         140.6520  141.8971  164.9388 C.ar    1  UNL1       -0.0023
      8 C         139.4570  141.1259  164.4618 C.ar    1  UNL1        0.0005
      9 C         138.7472  140.1900  165.3948 C.ar    1  UNL1        0.0366
     10 C         139.2323  140.0253  166.8046 C.ar    1  UNL1        0.1387
     11 C         140.4273  140.7965  167.2815 C.ar    1  UNL1        0.0366
     12 C         141.1370  141.7324  166.3485 C.ar    1  UNL1        0.0005
     13 O         138.5226  139.0895  167.7376 O.3     1  UNL1       -0.4714
     14 C         137.3838  138.2517  167.2366 C.3     1  UNL1        0.2525
     15 N         141.6001  145.4418  161.1418 N.3     1  UNL1       -0.1073
     16 H         142.5158  145.8402  160.9342 H       1  UNL1        0.1715
     17 S         141.0216  144.9826  159.8362 S.O2    1  UNL1        0.0573
     18 C         140.4431  144.5234  158.5306 C.3     1  UNL1        0.1974
     19 O         142.3366  144.3590  159.4729 O.2     1  UNL1       -0.1561
     20 O         139.7067  145.6061  160.1995 O.2     1  UNL1       -0.1561
     21 C         143.8703  142.4278  164.8355 C.3     1  UNL1        0.0957
     22 C         144.9268  141.5519  164.2301 C.3     1  UNL1        0.0262
     23 C         144.8232  140.0602  164.3492 C.3     1  UNL1        0.0281
     24 C         140.9415  137.9915  163.3989 C.ar    1  UNL1        0.1387
     25 C         141.5465  137.8601  164.7651 C.ar    1  UNL1        0.0366
     26 C         142.8404  138.5497  165.0819 C.ar    1  UNL1       -0.0012
     27 C         143.5293  139.3706  164.0324 C.ar    1  UNL1       -0.0219
     28 C         142.9243  139.5020  162.6662 C.ar    1  UNL1       -0.0012
     29 C         141.6304  138.8125  162.3494 C.ar    1  UNL1        0.0366
     30 C         138.5741  138.0305  162.3294 C.3     1  UNL1        0.2525
     31 O         139.6476  137.3019  163.0821 O.3     1  UNL1       -0.4714
@<TRIPOS>BOND
     1    30    31    1
     2    31    24    1
     3    24    25   ar
     4    25    26   ar
     5    26    27   ar
     6    27    23    1
     7    23    22    1
     8    22    21    1
     9    21     1    1
    10     1     2   am
    11     2     3    2
    12     2     4   am
    13     4    15    1
    14    15    17    1
    15    17    18    1
    16    17    19    2
    17    17    20    2
    18     4     5    1
    19     5     6    1
    20     6     7    1
    21     7     8   ar
    22     8     9   ar
    23     9    10   ar
    24    10    13    1
    25    13    14    1
    26    10    11   ar
    27    11    12   ar
    28    27    28   ar
    29    28    29   ar
    30    29    24   ar
    31     6     1    1
    32    12     7   ar
    33    15    16    1
@<TRIPOS>MOLECULE
*****
 31 33 0 0 0
SMALL
GASTEIGER

@<TRIPOS>ATOM
      1 N         139.0390  139.6040  165.4854 N.am    1  UNL1       -0.2591
      2 C         138.5841  139.0989  166.8226 C.2     1  UNL1        0.3219
      3 O         137.6890  137.9192  167.0615 O.2     1  UNL1       -0.2510
      4 N         139.1814  139.9806  167.8789 N.am    1  UNL1       -0.1885
      5 C         140.0055  141.0306  167.1945 C.3     1  UNL1        0.1388
      6 C         139.9175  140.7979  165.7153 C.3     1  UNL1        0.1208
      7 C         140.5899  141.6155  164.6527 C.ar    1  UNL1       -0.0023
      8 C         140.0132  141.6670  163.2688 C.ar    1  UNL1        0.0005
      9 C         140.6857  142.4846  162.2061 C.ar    1  UNL1        0.0366
     10 C         141.9347  143.2507  162.5271 C.ar    1  UNL1        0.1387
     11 C         142.5113  143.1992  163.9109 C.ar    1  UNL1        0.0366
     12 C         141.8389  142.3816  164.9736 C.ar    1  UNL1        0.0005
     13 O         142.6071  144.0683  161.4645 O.3     1  UNL1       -0.4714
     14 C         141.9152  144.3131  160.1564 C.3     1  UNL1        0.2525
     15 N         138.9885  139.8374  169.3595 N.3     1  UNL1       -0.1073
     16 H         138.9958  138.8377  169.5621 H       1  UNL1        0.1715
     17 S         139.9581  140.4784  170.3077 S.O2    1  UNL1        0.0573
     18 C         140.9277  141.1194  171.2558 C.3     1  UNL1        0.1974
     19 O         139.0149  141.6298  170.4938 O.2     1  UNL1       -0.1561
     20 O         140.9013  139.3271  170.1215 O.2     1  UNL1       -0.1561
     21 C         138.6786  139.0180  164.1524 C.3     1  UNL1        0.0957
     22 C         139.3237  137.7437  163.6943 C.3     1  UNL1        0.0262
     23 C         140.5868  137.2656  164.3469 C.3     1  UNL1        0.0281
     24 C         144.3253  139.7589  164.1093 C.ar    1  UNL1        0.1387
     25 C         143.9036  139.1625  165.4194 C.ar    1  UNL1        0.0366
     26 C         142.6574  138.3314  165.4986 C.ar    1  UNL1       -0.0012
     27 C         141.8330  138.0967  164.2677 C.ar    1  UNL1       -0.0219
     28 C         142.2547  138.6931  162.9576 C.ar    1  UNL1       -0.0012
     29 C         143.5009  139.5242  162.8784 C.ar    1  UNL1        0.0366
     30 C         145.6352  141.7588  163.0920 C.3     1  UNL1        0.2525
     31 O         145.5715  140.5901  164.0301 O.3     1  UNL1       -0.4714
@<TRIPOS>BOND
     1    30    31    1
     2    31    24    1
     3    24    25   ar
     4    25    26   ar
     5    26    27   ar
     6    27    23    1
     7    23    22    1
     8    22    21    1
     9    21     1    1
    10     1     2   am
    11     2     3    2
    12     2     4   am
    13     4    15    1
    14    15    17    1
    15    17    18    1
    16    17    19    2
    17    17    20    2
    18     4     5    1
    19     5     6    1
    20     6     7    1
    21     7     8   ar
    22     8     9   ar
    23     9    10   ar
    24    10    13    1
    25    13    14    1
    26    10    11   ar
    27    11    12   ar
    28    27    28   ar
    29    28    29   ar
    30    29    24   ar
    31     6     1    1
    32    12     7   ar
    33    15    16    1
@<TRIPOS>MOLECULE
*****
 31 33 0 0 0
SMALL
GASTEIGER

@<TRIPOS>ATOM
      1 N         138.6382  141.4603  164.5859 N.am    1  UNL1       -0.2591
      2 C         138.0245  142.2329  163.4562 C.2     1  UNL1        0.3219
      3 O         136.8674  141.7895  162.6109 O.2     1  UNL1       -0.2510
      4 N         138.7709  143.5268  163.3201 N.am    1  UNL1       -0.1885
      5 C         139.8461  143.5538  164.3658 C.3     1  UNL1        0.1388
      6 C         139.7640  142.2766  165.1481 C.3     1  UNL1        0.1208
      7 C         140.6519  141.8847  166.2918 C.ar    1  UNL1       -0.0023
      8 C         140.0957  141.0868  167.4338 C.ar    1  UNL1        0.0005
      9 C         140.9836  140.6949  168.5775 C.ar    1  UNL1        0.0366
     10 C         142.4277  141.1007  168.5792 C.ar    1  UNL1        0.1387
     11 C         142.9838  141.8985  167.4372 C.ar    1  UNL1        0.0366
     12 C         142.0959  142.2904  166.2936 C.ar    1  UNL1        0.0005
     13 O         143.3155  140.7087  169.7229 O.3     1  UNL1       -0.4714
     14 C         142.9120  139.5894  170.6362 C.3     1  UNL1        0.2525
     15 N         138.4914  144.6045  162.3149 N.3     1  UNL1       -0.1073
     16 H         138.2284  145.4374  162.8416 H       1  UNL1        0.1715
     17 S         139.5587  145.0230  161.3476 S.O2    1  UNL1        0.0573
     18 C         140.6261  145.4414  160.3802 C.3     1  UNL1        0.1974
     19 O         139.2210  143.8546  160.4695 O.2     1  UNL1       -0.1561
     20 O         139.8964  146.1912  162.2255 O.2     1  UNL1       -0.1561
     21 C         138.2026  140.1085  165.0687 C.3     1  UNL1        0.0957
     22 C         138.7259  138.8700  164.4036 C.3     1  UNL1        0.0262
     23 C         139.9161  138.1578  164.9746 C.3     1  UNL1        0.0281
     24 C         144.0634  139.7132  164.1806 C.ar    1  UNL1        0.1387
     25 C         142.9660  139.9634  163.1891 C.ar    1  UNL1        0.0366
     26 C         141.5836  139.4449  163.4538 C.ar    1  UNL1       -0.0012
     27 C         141.2985  138.6763  164.7100 C.ar    1  UNL1       -0.0219
     28 C         142.3959  138.4262  165.7015 C.ar    1  UNL1       -0.0012
     29 C         143.7784  138.9447  165.4368 C.ar    1  UNL1        0.0366
     30 C         145.6877  141.7091  163.8226 C.3     1  UNL1        0.2525
     31 O         145.4458  140.2317  163.9160 O.3     1  UNL1       -0.4714
@<TRIPOS>BOND
     1    30    31    1
     2    31    24    1
     3    24    25   ar
     4    25    26   ar
     5    26    27   ar
     6    27    23    1
     7    23    22    1
     8    22    21    1
     9    21     1    1
    10     1     2   am
    11     2     3    2
    12     2     4   am
    13     4    15    1
    14    15    17    1
    15    17    18    1
    16    17    19    2
    17    17    20    2
    18     4     5    1
    19     5     6    1
    20     6     7    1
    21     7     8   ar
    22     8     9   ar
    23     9    10   ar
    24    10    13    1
    25    13    14    1
    26    10    11   ar
    27    11    12   ar
    28    27    28   ar
    29    28    29   ar
    30    29    24   ar
    31     6     1    1
    32    12     7   ar
    33    15    16    1
@<TRIPOS>MOLECULE
*****
 31 33 0 0 0
SMALL
GASTEIGER

@<TRIPOS>ATOM
      1 N         138.9750  139.4032  165.5532 N.am    1  UNL1       -0.2591
      2 C         138.4243  139.0849  166.9117 C.2     1  UNL1        0.3219
      3 O         137.2895  138.1493  167.2060 O.2     1  UNL1       -0.2510
      4 N         139.2078  139.8666  167.9242 N.am    1  UNL1       -0.1885
      5 C         140.2427  140.6679  167.1914 C.3     1  UNL1        0.1388
      6 C         140.0988  140.3816  165.7261 C.3     1  UNL1        0.1208
      7 C         140.9323  140.9702  164.6267 C.ar    1  UNL1       -0.0023
      8 C         142.4120  141.1322  164.8121 C.ar    1  UNL1        0.0005
      9 C         143.2456  141.7209  163.7127 C.ar    1  UNL1        0.0366
     10 C         142.5995  142.1475  162.4279 C.ar    1  UNL1        0.1387
     11 C         141.1199  141.9855  162.2426 C.ar    1  UNL1        0.0366
     12 C         140.2863  141.3969  163.3420 C.ar    1  UNL1        0.0005
     13 O         143.4331  142.7362  161.3285 O.3     1  UNL1       -0.4714
     14 C         144.9056  142.4568  161.2722 C.3     1  UNL1        0.2525
     15 N         138.9940  139.8498  169.4088 N.3     1  UNL1       -0.1073
     16 H         138.9510  138.8700  169.6890 H       1  UNL1        0.1715
     17 S         139.9844  140.5168  170.3168 S.O2    1  UNL1        0.0573
     18 C         140.9747  141.1838  171.2247 C.3     1  UNL1        0.1974
     19 O         140.8799  139.3172  170.2213 O.2     1  UNL1       -0.1561
     20 O         139.0889  141.7163  170.4122 O.2     1  UNL1       -0.1561
     21 C         138.4873  138.8417  164.2505 C.3     1  UNL1        0.0957
     22 C         139.0924  137.5831  163.7029 C.3     1  UNL1        0.0262
     23 C         140.5781  137.3822  163.7519 C.3     1  UNL1        0.0281
     24 C         143.1738  138.9691  160.4362 C.ar    1  UNL1        0.1387
     25 C         143.7825  138.6121  161.7598 C.ar    1  UNL1        0.0366
     26 C         142.9173  138.0832  162.8650 C.ar    1  UNL1       -0.0012
     27 C         141.4433  137.9112  162.6467 C.ar    1  UNL1       -0.0219
     28 C         140.8346  138.2681  161.3231 C.ar    1  UNL1       -0.0012
     29 C         141.6998  138.7971  160.2178 C.ar    1  UNL1        0.0366
     30 C         143.4501  140.3911  158.2795 C.3     1  UNL1        0.2525
     31 O         144.0390  139.4981  159.3310 O.3     1  UNL1       -0.4714
@<TRIPOS>BOND
     1    30    31    1
     2    31    24    1
     3    24    25   ar
     4    25    26   ar
     5    26    27   ar
     6    27    23    1
     7    23    22    1
     8    22    21    1
     9    21     1    1
    10     1     2   am
    11     2     3    2
    12     2     4   am
    13     4    15    1
    14    15    17    1
    15    17    18    1
    16    17    19    2
    17    17    20    2
    18     4     5    1
    19     5     6    1
    20     6     7    1
    21     7     8   ar
    22     8     9   ar
    23     9    10   ar
    24    10    13    1
    25    13    14    1
    26    10    11   ar
    27    11    12   ar
    28    27    28   ar
    29    28    29   ar
    30    29    24   ar
    31     6     1    1
    32    12     7   ar
    33    15    16    1
@<TRIPOS>MOLECULE
*****
 31 33 0 0 0
SMALL
GASTEIGER

@<TRIPOS>ATOM
      1 N         143.6860  139.1117  163.9804 N.am    1  UNL1       -0.2591
      2 C         143.1566  138.3682  162.7900 C.2     1  UNL1        0.3219
      3 O         143.9646  137.8807  161.6241 O.2     1  UNL1       -0.2510
      4 N         141.6772  138.1978  162.9702 N.am    1  UNL1       -0.1885
      5 C         141.2924  138.8360  164.2721 C.3     1  UNL1        0.1388
      6 C         142.5338  139.4008  164.8963 C.3     1  UNL1        0.1208
      7 C         142.6098  140.1271  166.2065 C.ar    1  UNL1       -0.0023
      8 C         142.7031  141.6241  166.2298 C.ar    1  UNL1        0.0005
      9 C         142.7790  142.3505  167.5399 C.ar    1  UNL1        0.0366
     10 C         142.7617  141.5800  168.8269 C.ar    1  UNL1        0.1387
     11 C         142.6685  140.0831  168.8035 C.ar    1  UNL1        0.0366
     12 C         142.5925  139.3567  167.4934 C.ar    1  UNL1        0.0005
     13 O         142.8377  142.3064  170.1370 O.3     1  UNL1       -0.4714
     14 C         141.8405  142.0103  171.2177 C.3     1  UNL1        0.2525
     15 N         140.7462  137.5099  162.0163 N.3     1  UNL1       -0.1073
     16 H         140.3062  136.7479  162.5321 H       1  UNL1        0.1715
     17 S         139.6413  138.2823  161.3585 S.O2    1  UNL1        0.0573
     18 C         138.5363  139.0546  160.7007 C.3     1  UNL1        0.1974
     19 O         140.6144  138.8145  160.3487 O.2     1  UNL1       -0.1561
     20 O         138.6682  137.7501  162.3683 O.2     1  UNL1       -0.1561
     21 C         145.1165  139.4982  164.2138 C.3     1  UNL1        0.0957
     22 C         145.5482  140.9228  164.0288 C.3     1  UNL1        0.0262
     23 C         145.1125  141.6867  162.8136 C.3     1  UNL1        0.0281
     24 C         141.6332  144.5289  163.0704 C.ar    1  UNL1        0.1387
     25 C         142.9600  144.9129  163.6551 C.ar    1  UNL1        0.0366
     26 C         144.1198  143.9655  163.5695 C.ar    1  UNL1       -0.0012
     27 C         143.9527  142.6341  162.8992 C.ar    1  UNL1       -0.0219
     28 C         142.6259  142.2501  162.3145 C.ar    1  UNL1       -0.0012
     29 C         141.4661  143.1975  162.4001 C.ar    1  UNL1        0.0366
     30 C         139.7798  145.9276  161.9049 C.3     1  UNL1        0.2525
     31 O         140.4734  145.4763  163.1559 O.3     1  UNL1       -0.4714
@<TRIPOS>BOND
     1    30    31    1
     2    31    24    1
     3    24    25   ar
     4    25    26   ar
     5    26    27   ar
     6    27    23    1
     7    23    22    1
     8    22    21    1
     9    21     1    1
    10     1     2   am
    11     2     3    2
    12     2     4   am
    13     4    15    1
    14    15    17    1
    15    17    18    1
    16    17    19    2
    17    17    20    2
    18     4     5    1
    19     5     6    1
    20     6     7    1
    21     7     8   ar
    22     8     9   ar
    23     9    10   ar
    24    10    13    1
    25    13    14    1
    26    10    11   ar
    27    11    12   ar
    28    27    28   ar
    29    28    29   ar
    30    29    24   ar
    31     6     1    1
    32    12     7   ar
    33    15    16    1
@<TRIPOS>MOLECULE
*****
 31 33 0 0 0
SMALL
GASTEIGER

@<TRIPOS>ATOM
      1 N         140.3473  144.1980  164.4321 N.am    1  UNL1       -0.2591
      2 C         141.2003  144.7553  163.3312 C.2     1  UNL1        0.3219
      3 O         140.8044  145.8376  162.3711 O.2     1  UNL1       -0.2510
      4 N         142.5186  144.0404  163.3591 N.am    1  UNL1       -0.1885
      5 C         142.4803  143.0411  164.4773 C.3     1  UNL1        0.1388
      6 C         141.1384  143.1386  165.1403 C.3     1  UNL1        0.1208
      7 C         140.6699  142.3203  166.3069 C.ar    1  UNL1       -0.0023
      8 C         140.1434  140.9330  166.0866 C.ar    1  UNL1        0.0005
      9 C         139.6749  140.1147  167.2531 C.ar    1  UNL1        0.0366
     10 C         139.7328  140.6835  168.6399 C.ar    1  UNL1        0.1387
     11 C         140.2593  142.0707  168.8601 C.ar    1  UNL1        0.0366
     12 C         140.7278  142.8890  167.6936 C.ar    1  UNL1        0.0005
     13 O         139.2643  139.8651  169.8065 O.3     1  UNL1       -0.4714
     14 C         140.1347  139.7213  171.0195 C.3     1  UNL1        0.2525
     15 N         143.6725  144.2822  162.4318 N.3     1  UNL1       -0.1073
     16 H         144.4989  144.4074  163.0165 H       1  UNL1        0.1715
     17 S         144.0276  143.2592  161.3938 S.O2    1  UNL1        0.0573
     18 C         144.3827  142.2363  160.3557 C.3     1  UNL1        0.1974
     19 O         144.9987  142.6286  162.3474 O.2     1  UNL1       -0.1561
     20 O         143.0565  143.8898  160.4403 O.2     1  UNL1       -0.1561
     21 C         138.9486  144.6252  164.7660 C.3     1  UNL1        0.0957
     22 C         137.7957  143.7106  164.4757 C.3     1  UNL1        0.0262
     23 C         137.6673  143.0709  163.1251 C.3     1  UNL1        0.0281
     24 C         139.6179  139.0956  162.3237 C.ar    1  UNL1        0.1387
     25 C         140.2403  140.3556  161.7995 C.ar    1  UNL1        0.0366
     26 C         139.5901  141.6807  162.0666 C.ar    1  UNL1       -0.0012
     27 C         138.3175  141.7458  162.8579 C.ar    1  UNL1       -0.0219
     28 C         137.6952  140.4858  163.3822 C.ar    1  UNL1       -0.0012
     29 C         138.3453  139.1607  163.1151 C.ar    1  UNL1        0.0366
     30 C         141.7474  137.6950  161.8204 C.3     1  UNL1        0.2525
     31 O         140.2681  137.7705  162.0566 O.3     1  UNL1       -0.4714
@<TRIPOS>BOND
     1    30    31    1
     2    31    24    1
     3    24    25   ar
     4    25    26   ar
     5    26    27   ar
     6    27    23    1
     7    23    22    1
     8    22    21    1
     9    21     1    1
    10     1     2   am
    11     2     3    2
    12     2     4   am
    13     4    15    1
    14    15    17    1
    15    17    18    1
    16    17    19    2
    17    17    20    2
    18     4     5    1
    19     5     6    1
    20     6     7    1
    21     7     8   ar
    22     8     9   ar
    23     9    10   ar
    24    10    13    1
    25    13    14    1
    26    10    11   ar
    27    11    12   ar
    28    27    28   ar
    29    28    29   ar
    30    29    24   ar
    31     6     1    1
    32    12     7   ar
    33    15    16    1
@<TRIPOS>MOLECULE
*****
 31 33 0 0 0
SMALL
GASTEIGER

@<TRIPOS>ATOM
      1 N         139.1879  138.8501  164.3328 N.am    1  UNL1       -0.2591
      2 C         138.4056  139.0164  163.0638 C.2     1  UNL1        0.3219
      3 O         138.0143  137.9191  162.1189 O.2     1  UNL1       -0.2510
      4 N         138.0833  140.4728  162.9054 N.am    1  UNL1       -0.1885
      5 C         138.6664  141.2065  164.0767 C.3     1  UNL1        0.1388
      6 C         139.3491  140.2036  164.9588 C.3     1  UNL1        0.1208
      7 C         140.0669  140.5019  166.2416 C.ar    1  UNL1       -0.0023
      8 C         141.3536  141.2727  166.2193 C.ar    1  UNL1        0.0005
      9 C         142.0714  141.5711  167.5022 C.ar    1  UNL1        0.0366
     10 C         141.5026  141.0987  168.8073 C.ar    1  UNL1        0.1387
     11 C         140.2160  140.3279  168.8296 C.ar    1  UNL1        0.0366
     12 C         139.4982  140.0296  167.5467 C.ar    1  UNL1        0.0005
     13 O         142.2204  141.3970  170.0902 O.3     1  UNL1       -0.4714
     14 C         142.9890  142.6763  170.2396 C.3     1  UNL1        0.2525
     15 N         137.3131  141.0875  161.7745 N.3     1  UNL1       -0.1073
     16 H         136.6414  141.7318  162.1917 H       1  UNL1        0.1715
     17 S         138.0347  141.8486  160.7021 S.O2    1  UNL1        0.0573
     18 C         138.7562  142.6097  159.6296 C.3     1  UNL1        0.1974
     19 O         138.3666  140.5596  160.0105 O.2     1  UNL1       -0.1561
     20 O         137.7028  143.1376  161.3936 O.2     1  UNL1       -0.1561
     21 C         139.7163  137.5571  164.8798 C.3     1  UNL1        0.0957
     22 C         141.1496  137.1770  164.6535 C.3     1  UNL1        0.0262
     23 C         141.8668  137.6530  163.4252 C.3     1  UNL1        0.0281
     24 C         144.0631  141.5803  163.4821 C.ar    1  UNL1        0.1387
     25 C         144.5350  140.4445  164.3408 C.ar    1  UNL1        0.0366
     26 C         143.8029  139.1355  164.3218 C.ar    1  UNL1       -0.0012
     27 C         142.5989  138.9621  163.4442 C.ar    1  UNL1       -0.0219
     28 C         142.1270  140.0978  162.5855 C.ar    1  UNL1       -0.0012
     29 C         142.8591  141.4069  162.6044 C.ar    1  UNL1        0.0366
     30 C         144.2191  144.0811  162.7956 C.3     1  UNL1        0.2525
     31 O         144.7952  142.8893  163.5010 O.3     1  UNL1       -0.4714
@<TRIPOS>BOND
     1    30    31    1
     2    31    24    1
     3    24    25   ar
     4    25    26   ar
     5    26    27   ar
     6    27    23    1
     7    23    22    1
     8    22    21    1
     9    21     1    1
    10     1     2   am
    11     2     3    2
    12     2     4   am
    13     4    15    1
    14    15    17    1
    15    17    18    1
    16    17    19    2
    17    17    20    2
    18     4     5    1
    19     5     6    1
    20     6     7    1
    21     7     8   ar
    22     8     9   ar
    23     9    10   ar
    24    10    13    1
    25    13    14    1
    26    10    11   ar
    27    11    12   ar
    28    27    28   ar
    29    28    29   ar
    30    29    24   ar
    31     6     1    1
    32    12     7   ar
    33    15    16    1
@<TRIPOS>MOLECULE
*****
 31 33 0 0 0
SMALL
GASTEIGER

@<TRIPOS>ATOM
      1 N         144.0371  142.2225  163.7897 N.am    1  UNL1       -0.2591
      2 C         144.6565  141.5153  162.6208 C.2     1  UNL1        0.3219
      3 O         145.5951  142.1215  161.6200 O.2     1  UNL1       -0.2510
      4 N         144.1726  140.0956  162.6285 N.am    1  UNL1       -0.1885
      5 C         143.2541  139.9253  163.8022 C.3     1  UNL1        0.1388
      6 C         143.1704  141.2398  164.5198 C.3     1  UNL1        0.1208
      7 C         142.3619  141.5221  165.7513 C.ar    1  UNL1       -0.0023
      8 C         140.8689  141.3802  165.7171 C.ar    1  UNL1        0.0005
      9 C         140.0604  141.6625  166.9486 C.ar    1  UNL1        0.0366
     10 C         140.7447  142.0866  168.2143 C.ar    1  UNL1        0.1387
     11 C         142.2376  142.2284  168.2485 C.ar    1  UNL1        0.0366
     12 C         143.0461  141.9462  167.0170 C.ar    1  UNL1        0.0005
     13 O         139.9362  142.3688  169.4458 O.3     1  UNL1       -0.4714
     14 C         140.6196  142.5285  170.7714 C.3     1  UNL1        0.2525
     15 N         144.5423  139.0327  161.6368 N.3     1  UNL1       -0.1073
     16 H         144.7388  138.1866  162.1715 H       1  UNL1        0.1715
     17 S         143.5766  138.6472  160.5556 S.O2    1  UNL1        0.0573
     18 C         142.6109  138.2617  159.4745 C.3     1  UNL1        0.1974
     19 O         144.2251  139.6297  159.6261 O.2     1  UNL1       -0.1561
     20 O         142.9281  137.6647  161.4852 O.2     1  UNL1       -0.1561
     21 C         144.2475  143.6601  164.1629 C.3     1  UNL1        0.0957
     22 C         143.5505  144.7440  163.3952 C.3     1  UNL1        0.0262
     23 C         142.2240  145.2623  163.8661 C.3     1  UNL1        0.0281
     24 C         138.4788  142.8897  163.0951 C.ar    1  UNL1        0.1387
     25 C         138.5199  143.8822  164.2191 C.ar    1  UNL1        0.0366
     26 C         139.7683  144.6730  164.4760 C.ar    1  UNL1       -0.0012
     27 C         140.9756  144.4715  163.6091 C.ar    1  UNL1       -0.0219
     28 C         140.9346  143.4790  162.4851 C.ar    1  UNL1       -0.0012
     29 C         139.6862  142.6882  162.2281 C.ar    1  UNL1        0.0366
     30 C         137.3261  140.6637  162.4126 C.3     1  UNL1        0.2525
     31 O         137.2305  142.0989  162.8381 O.3     1  UNL1       -0.4714
@<TRIPOS>BOND
     1    30    31    1
     2    31    24    1
     3    24    25   ar
     4    25    26   ar
     5    26    27   ar
     6    27    23    1
     7    23    22    1
     8    22    21    1
     9    21     1    1
    10     1     2   am
    11     2     3    2
    12     2     4   am
    13     4    15    1
    14    15    17    1
    15    17    18    1
    16    17    19    2
    17    17    20    2
    18     4     5    1
    19     5     6    1
    20     6     7    1
    21     7     8   ar
    22     8     9   ar
    23     9    10   ar
    24    10    13    1
    25    13    14    1
    26    10    11   ar
    27    11    12   ar
    28    27    28   ar
    29    28    29   ar
    30    29    24   ar
    31     6     1    1
    32    12     7   ar
    33    15    16    1
