@<TRIPOS>MOLECULE
*****
 31 34 0 0 0
SMALL
GASTEIGER

@<TRIPOS>ATOM
      1 C         139.3374  137.9509  163.8748 C.3     1  UNL1        0.1063
      2 N         139.3499  138.5468  165.2512 N.3     1  UNL1       -0.2702
      3 C         138.1449  138.4181  166.1352 C.3     1  UNL1        0.0749
      4 C         138.1574  139.0140  167.5117 C.3     1  UNL1        0.0485
      5 C         139.3749  139.7388  168.0042 C.3     1  UNL1        0.1097
      6 O         138.4854  139.8786  169.2039 O.3     1  UNL1       -0.3826
      7 C         140.5799  139.8676  167.1201 C.3     1  UNL1        0.0485
      8 C         140.5674  139.2716  165.7437 C.3     1  UNL1        0.0749
      9 H         137.6356  139.4450  169.0287 H       1  UNL1        0.2107
     10 C         140.2834  140.5121  168.9133 C.ar    1  UNL1        0.0040
     11 C         141.2907  139.7901  169.7583 C.ar    1  UNL1       -0.0019
     12 C         142.1992  140.5634  170.6675 C.ar    1  UNL1        0.0021
     13 C         142.1005  142.0588  170.7316 C.ar    1  UNL1        0.0296
     14 C         141.0933  142.7808  169.8866 C.ar    1  UNL1        0.1399
     15 F         140.9946  144.2762  169.9506 F       1  UNL1       -0.2042
     16 C         140.1847  142.0075  168.9774 C.ar    1  UNL1        0.0276
     17 C         138.5973  138.6390  162.7662 C.3     1  UNL1        0.1486
     18 O         137.8601  137.8295  161.7410 O.3     1  UNL1       -0.3786
     19 H         137.9627  136.8856  161.9395 H       1  UNL1        0.2108
     20 O         139.7275  146.8445  161.6968 O.2     1  UNL1       -0.2748
     21 C         139.7303  145.3468  161.7800 C.2     1  UNL1        0.2264
     22 C         140.8772  144.5661  161.2100 C.3     1  UNL1        0.0901
     23 C         140.8800  143.0684  161.2932 C.3     1  UNL1        0.0372
     24 C         139.7359  142.3514  161.9465 C.ar    1  UNL1       -0.0085
     25 C         139.7387  140.8537  162.0297 C.ar    1  UNL1       -0.0049
     26 C         138.5945  140.1367  162.6830 C.ar    1  UNL1        0.0054
     27 C         137.4475  140.9174  163.2531 C.ar    1  UNL1       -0.0007
     28 C         137.4447  142.4151  163.1699 C.ar    1  UNL1        0.0141
     29 C         138.5889  143.1321  162.5165 C.ar    1  UNL1        0.0462
     30 N         138.5861  144.6298  162.4333 N.am    1  UNL1       -0.2842
     31 H         137.8333  145.1422  162.8075 H       1  UNL1        0.1548
@<TRIPOS>BOND
     1    20    21    2
     2    21    22    1
     3    22    23    1
     4    23    24    1
     5    24    25   ar
     6    25    26   ar
     7    26    17    1
     8    17    18    1
     9    17     1    1
    10     1     2    1
    11     2     3    1
    12     3     4    1
    13     4     5    1
    14     5     6    1
    15     5    10    1
    16    10    11   ar
    17    11    12   ar
    18    12    13   ar
    19    13    14   ar
    20    14    15    1
    21    14    16   ar
    22     5     7    1
    23     7     8    1
    24    26    27   ar
    25    27    28   ar
    26    28    29   ar
    27    29    30    1
    28    30    21   am
    29    29    24   ar
    30     8     2    1
    31    16    10   ar
    32    18    19    1
    33     6     9    1
    34    30    31    1
@<TRIPOS>MOLECULE
*****
 31 34 0 0 0
SMALL
GASTEIGER

@<TRIPOS>ATOM
      1 C         144.6957  140.2812  164.0942 C.3     1  UNL1        0.1063
      2 N         143.4753  140.2579  164.9659 N.3     1  UNL1       -0.2702
      3 C         142.3258  139.3573  164.6230 C.3     1  UNL1        0.0749
      4 C         141.1053  139.3341  165.4947 C.3     1  UNL1        0.0485
      5 C         141.0343  140.2114  166.7092 C.3     1  UNL1        0.1097
      6 O         139.6990  139.5337  166.7990 O.3     1  UNL1       -0.3826
      7 C         142.1838  141.1120  167.0522 C.3     1  UNL1        0.0485
      8 C         143.4043  141.1353  166.1805 C.3     1  UNL1        0.0749
      9 H         139.5987  138.9173  166.0567 H       1  UNL1        0.2107
     10 C         140.4995  140.8534  167.9550 C.ar    1  UNL1        0.0040
     11 C         139.6156  140.0720  168.8813 C.ar    1  UNL1       -0.0019
     12 C         139.0809  140.7140  170.1271 C.ar    1  UNL1        0.0021
     13 C         139.4301  142.1374  170.4465 C.ar    1  UNL1        0.0296
     14 C         140.3140  142.9187  169.5202 C.ar    1  UNL1        0.1399
     15 F         140.6632  144.3421  169.8396 F       1  UNL1       -0.2042
     16 C         140.8487  142.2767  168.2744 C.ar    1  UNL1        0.0276
     17 C         145.1335  141.5636  163.4507 C.3     1  UNL1        0.1486
     18 O         146.5755  141.7689  163.0924 O.3     1  UNL1       -0.3786
     19 H         147.0858  140.9826  163.3420 H       1  UNL1        0.2108
     20 O         139.0741  146.7441  160.9616 O.2     1  UNL1       -0.2748
     21 C         140.0784  145.6671  161.2467 C.2     1  UNL1        0.2264
     22 C         140.0450  144.3853  160.4683 C.3     1  UNL1        0.0901
     23 C         141.0494  143.3083  160.7534 C.3     1  UNL1        0.0372
     24 C         142.0871  143.5130  161.8169 C.ar    1  UNL1       -0.0085
     25 C         143.0914  142.4359  162.1021 C.ar    1  UNL1       -0.0049
     26 C         144.1292  142.6406  163.1656 C.ar    1  UNL1        0.0054
     27 C         144.1626  143.9224  163.9441 C.ar    1  UNL1       -0.0007
     28 C         143.1583  144.9995  163.6590 C.ar    1  UNL1        0.0141
     29 C         142.1205  144.7947  162.5954 C.ar    1  UNL1        0.0462
     30 N         141.1161  145.8718  162.3102 N.am    1  UNL1       -0.2842
     31 H         141.1381  146.7130  162.8212 H       1  UNL1        0.1548
@<TRIPOS>BOND
     1    20    21    2
     2    21    22    1
     3    22    23    1
     4    23    24    1
     5    24    25   ar
     6    25    26   ar
     7    26    17    1
     8    17    18    1
     9    17     1    1
    10     1     2    1
    11     2     3    1
    12     3     4    1
    13     4     5    1
    14     5     6    1
    15     5    10    1
    16    10    11   ar
    17    11    12   ar
    18    12    13   ar
    19    13    14   ar
    20    14    15    1
    21    14    16   ar
    22     5     7    1
    23     7     8    1
    24    26    27   ar
    25    27    28   ar
    26    28    29   ar
    27    29    30    1
    28    30    21   am
    29    29    24   ar
    30     8     2    1
    31    16    10   ar
    32    18    19    1
    33     6     9    1
    34    30    31    1
@<TRIPOS>MOLECULE
*****
 31 34 0 0 0
SMALL
GASTEIGER

@<TRIPOS>ATOM
      1 C         138.9547  137.8400  163.9342 C.3     1  UNL1        0.1063
      2 N         139.7129  138.5444  165.0200 N.3     1  UNL1       -0.2702
      3 C         141.2107  138.6062  164.9701 C.3     1  UNL1        0.0749
      4 C         141.9689  139.3107  166.0559 C.3     1  UNL1        0.0485
      5 C         141.2292  139.9534  167.1915 C.3     1  UNL1        0.1097
      6 O         142.6405  140.2775  167.5833 O.3     1  UNL1       -0.3826
      7 C         139.7313  139.8917  167.2414 C.3     1  UNL1        0.0485
      8 C         138.9731  139.1872  166.1557 C.3     1  UNL1        0.0749
      9 H         143.2509  139.9146  166.9226 H       1  UNL1        0.2107
     10 C         140.9796  140.7087  168.4633 C.ar    1  UNL1        0.0040
     11 C         140.9325  139.9782  169.7725 C.ar    1  UNL1       -0.0019
     12 C         140.6829  140.7335  171.0442 C.ar    1  UNL1        0.0021
     13 C         140.4804  142.2193  171.0067 C.ar    1  UNL1        0.0296
     14 C         140.5275  142.9498  169.6974 C.ar    1  UNL1        0.1399
     15 F         140.3249  144.4355  169.6599 F       1  UNL1       -0.2042
     16 C         140.7771  142.1945  168.4257 C.ar    1  UNL1        0.0276
     17 C         138.6871  138.5366  162.6330 C.3     1  UNL1        0.1486
     18 O         138.4400  137.7344  161.3898 O.3     1  UNL1       -0.3786
     19 H         138.4881  136.7888  161.6003 H       1  UNL1        0.2108
     20 O         139.7412  146.7734  161.7423 O.2     1  UNL1       -0.2748
     21 C         139.7616  145.2747  161.8003 C.2     1  UNL1        0.2264
     22 C         140.9383  144.5191  161.2577 C.3     1  UNL1        0.0901
     23 C         140.9587  143.0203  161.3157 C.3     1  UNL1        0.0372
     24 C         139.8025  142.2772  161.9163 C.ar    1  UNL1       -0.0085
     25 C         139.8229  140.7785  161.9743 C.ar    1  UNL1       -0.0049
     26 C         138.6667  140.0353  162.5749 C.ar    1  UNL1        0.0054
     27 C         137.4899  140.7909  163.1176 C.ar    1  UNL1       -0.0007
     28 C         137.4695  142.2896  163.0596 C.ar    1  UNL1        0.0141
     29 C         138.6258  143.0328  162.4589 C.ar    1  UNL1        0.0462
     30 N         138.6054  144.5315  162.4009 N.am    1  UNL1       -0.2842
     31 H         137.8330  145.0274  162.7570 H       1  UNL1        0.1548
@<TRIPOS>BOND
     1    20    21    2
     2    21    22    1
     3    22    23    1
     4    23    24    1
     5    24    25   ar
     6    25    26   ar
     7    26    17    1
     8    17    18    1
     9    17     1    1
    10     1     2    1
    11     2     3    1
    12     3     4    1
    13     4     5    1
    14     5     6    1
    15     5    10    1
    16    10    11   ar
    17    11    12   ar
    18    12    13   ar
    19    13    14   ar
    20    14    15    1
    21    14    16   ar
    22     5     7    1
    23     7     8    1
    24    26    27   ar
    25    27    28   ar
    26    28    29   ar
    27    29    30    1
    28    30    21   am
    29    29    24   ar
    30     8     2    1
    31    16    10   ar
    32    18    19    1
    33     6     9    1
    34    30    31    1
@<TRIPOS>MOLECULE
*****
 31 34 0 0 0
SMALL
GASTEIGER

@<TRIPOS>ATOM
      1 C         139.1457  137.6230  163.9139 C.3     1  UNL1        0.1063
      2 N         139.3131  138.3625  165.2082 N.3     1  UNL1       -0.2702
      3 C         138.2059  138.3633  166.2201 C.3     1  UNL1        0.0749
      4 C         138.3732  139.1028  167.5144 C.3     1  UNL1        0.0485
      5 C         139.6478  139.8414  167.7968 C.3     1  UNL1        0.1097
      6 O         138.8920  140.1341  169.0590 O.3     1  UNL1       -0.3826
      7 C         140.7551  139.8406  166.7849 C.3     1  UNL1        0.0485
      8 C         140.5878  139.1011  165.4906 C.3     1  UNL1        0.0749
      9 H         138.0213  139.7084  169.0206 H       1  UNL1        0.2107
     10 C         140.6600  140.6817  168.5175 C.ar    1  UNL1        0.0040
     11 C         142.0037  140.1092  168.8590 C.ar    1  UNL1       -0.0019
     12 C         143.0158  140.9495  169.5797 C.ar    1  UNL1        0.0021
     13 C         142.6843  142.3623  169.9590 C.ar    1  UNL1        0.0296
     14 C         141.3406  142.9349  169.6176 C.ar    1  UNL1        0.1399
     15 F         141.0090  144.3477  169.9969 F       1  UNL1       -0.2042
     16 C         140.3284  142.0946  168.8968 C.ar    1  UNL1        0.0276
     17 C         138.6374  138.3421  162.6996 C.3     1  UNL1        0.1486
     18 O         137.7085  137.6459  161.7497 O.3     1  UNL1       -0.3786
     19 H         137.5391  136.7444  162.0655 H       1  UNL1        0.2108
     20 O         139.9043  146.5567  161.8839 O.2     1  UNL1       -0.2748
     21 C         139.4837  145.1413  162.1482 C.2     1  UNL1        0.2264
     22 C         138.2270  144.8638  162.9186 C.3     1  UNL1        0.0901
     23 C         137.8064  143.4485  163.1830 C.3     1  UNL1        0.0372
     24 C         138.6425  142.3106  162.6769 C.ar    1  UNL1       -0.0085
     25 C         138.2219  140.8953  162.9413 C.ar    1  UNL1       -0.0049
     26 C         139.0580  139.7574  162.4352 C.ar    1  UNL1        0.0054
     27 C         140.3148  140.0349  161.6648 C.ar    1  UNL1       -0.0007
     28 C         140.7354  141.4502  161.4004 C.ar    1  UNL1        0.0141
     29 C         139.8992  142.5881  161.9065 C.ar    1  UNL1        0.0462
     30 N         140.3198  144.0035  161.6422 N.am    1  UNL1       -0.2842
     31 H         141.1446  144.1856  161.1365 H       1  UNL1        0.1548
@<TRIPOS>BOND
     1    20    21    2
     2    21    22    1
     3    22    23    1
     4    23    24    1
     5    24    25   ar
     6    25    26   ar
     7    26    17    1
     8    17    18    1
     9    17     1    1
    10     1     2    1
    11     2     3    1
    12     3     4    1
    13     4     5    1
    14     5     6    1
    15     5    10    1
    16    10    11   ar
    17    11    12   ar
    18    12    13   ar
    19    13    14   ar
    20    14    15    1
    21    14    16   ar
    22     5     7    1
    23     7     8    1
    24    26    27   ar
    25    27    28   ar
    26    28    29   ar
    27    29    30    1
    28    30    21   am
    29    29    24   ar
    30     8     2    1
    31    16    10   ar
    32    18    19    1
    33     6     9    1
    34    30    31    1
@<TRIPOS>MOLECULE
*****
 31 34 0 0 0
SMALL
GASTEIGER

@<TRIPOS>ATOM
      1 C         139.1352  137.5936  163.9086 C.3     1  UNL1        0.1063
      2 N         139.8545  138.3389  164.9935 N.3     1  UNL1       -0.2702
      3 C         141.3533  138.3979  164.9961 C.3     1  UNL1        0.0749
      4 C         142.0726  139.1432  166.0811 C.3     1  UNL1        0.0485
      5 C         141.2932  139.8295  167.1634 C.3     1  UNL1        0.1097
      6 O         142.6898  140.1676  167.5938 O.3     1  UNL1       -0.3826
      7 C         139.7943  139.7704  167.1608 C.3     1  UNL1        0.0485
      8 C         139.0750  139.0251  166.0759 C.3     1  UNL1        0.0749
      9 H         143.3233  139.7793  166.9703 H       1  UNL1        0.2107
     10 C         140.9987  140.6331  168.3953 C.ar    1  UNL1        0.0040
     11 C         140.9566  139.9623  169.7362 C.ar    1  UNL1       -0.0019
     12 C         140.6622  140.7660  170.9680 C.ar    1  UNL1        0.0021
     13 C         140.4098  142.2405  170.8589 C.ar    1  UNL1        0.0296
     14 C         140.4519  142.9114  169.5180 C.ar    1  UNL1        0.1399
     15 F         140.1996  144.3860  169.4088 F       1  UNL1       -0.2042
     16 C         140.7464  142.1077  168.2861 C.ar    1  UNL1        0.0276
     17 C         138.6502  138.3240  162.6914 C.3     1  UNL1        0.1486
     18 O         137.7339  137.6392  161.7212 O.3     1  UNL1       -0.3786
     19 H         137.5552  136.7363  162.0274 H       1  UNL1        0.2108
     20 O         139.9489  146.5384  161.9245 O.2     1  UNL1       -0.2748
     21 C         139.5175  145.1231  162.1714 C.2     1  UNL1        0.2264
     22 C         138.2279  144.8458  162.8855 C.3     1  UNL1        0.0901
     23 C         137.7965  143.4306  163.1323 C.3     1  UNL1        0.0372
     24 C         138.6547  142.2926  162.6650 C.ar    1  UNL1       -0.0085
     25 C         138.2233  140.8773  162.9119 C.ar    1  UNL1       -0.0049
     26 C         139.0816  139.7393  162.4446 C.ar    1  UNL1        0.0054
     27 C         140.3712  140.0166  161.7304 C.ar    1  UNL1       -0.0007
     28 C         140.8026  141.4318  161.4836 C.ar    1  UNL1        0.0141
     29 C         139.9443  142.5699  161.9509 C.ar    1  UNL1        0.0462
     30 N         140.3757  143.9851  161.7041 N.am    1  UNL1       -0.2842
     31 H         141.2221  144.1671  161.2354 H       1  UNL1        0.1548
@<TRIPOS>BOND
     1    20    21    2
     2    21    22    1
     3    22    23    1
     4    23    24    1
     5    24    25   ar
     6    25    26   ar
     7    26    17    1
     8    17    18    1
     9    17     1    1
    10     1     2    1
    11     2     3    1
    12     3     4    1
    13     4     5    1
    14     5     6    1
    15     5    10    1
    16    10    11   ar
    17    11    12   ar
    18    12    13   ar
    19    13    14   ar
    20    14    15    1
    21    14    16   ar
    22     5     7    1
    23     7     8    1
    24    26    27   ar
    25    27    28   ar
    26    28    29   ar
    27    29    30    1
    28    30    21   am
    29    29    24   ar
    30     8     2    1
    31    16    10   ar
    32    18    19    1
    33     6     9    1
    34    30    31    1
@<TRIPOS>MOLECULE
*****
 31 34 0 0 0
SMALL
GASTEIGER

@<TRIPOS>ATOM
      1 C         138.6884  140.0330  163.4661 C.3     1  UNL1        0.1063
      2 N         138.9619  140.0554  164.9408 N.3     1  UNL1       -0.2702
      3 C         138.1020  139.2573  165.8753 C.3     1  UNL1        0.0749
      4 C         138.3755  139.2797  167.3500 C.3     1  UNL1        0.0485
      5 C         139.5090  140.1002  167.8902 C.3     1  UNL1        0.1097
      6 O         138.9787  139.5167  169.1662 O.3     1  UNL1       -0.3826
      7 C         140.3690  140.8984  166.9556 C.3     1  UNL1        0.0485
      8 C         140.0955  140.8760  165.4809 C.3     1  UNL1        0.0749
      9 H         138.2197  138.9456  168.9697 H       1  UNL1        0.2107
     10 C         140.4584  140.7182  168.8735 C.ar    1  UNL1        0.0040
     11 C         140.3614  142.1806  169.1922 C.ar    1  UNL1       -0.0019
     12 C         141.3108  142.7986  170.1756 C.ar    1  UNL1        0.0021
     13 C         142.3571  141.9539  170.8401 C.ar    1  UNL1        0.0296
     14 C         142.4542  140.4915  170.5214 C.ar    1  UNL1        0.1399
     15 F         143.5006  139.6468  171.1859 F       1  UNL1       -0.2042
     16 C         141.5048  139.8735  169.5380 C.ar    1  UNL1        0.0276
     17 C         138.0511  141.2182  162.8034 C.3     1  UNL1        0.1486
     18 O         136.5605  141.3831  162.8342 O.3     1  UNL1       -0.3786
     19 H         136.1632  140.6423  163.3182 H       1  UNL1        0.2108
     20 O         142.4612  146.2878  157.8436 O.2     1  UNL1       -0.2748
     21 C         141.6079  145.2675  158.5370 C.2     1  UNL1        0.2264
     22 C         140.8982  144.2152  157.7377 C.3     1  UNL1        0.0901
     23 C         140.0449  143.1949  158.4311 C.3     1  UNL1        0.0372
     24 C         139.9013  143.2269  159.9239 C.ar    1  UNL1       -0.0085
     25 C         139.0480  142.2066  160.6173 C.ar    1  UNL1       -0.0049
     26 C         138.9044  142.2385  162.1100 C.ar    1  UNL1        0.0054
     27 C         139.6141  143.2909  162.9094 C.ar    1  UNL1       -0.0007
     28 C         140.4674  144.3112  162.2160 C.ar    1  UNL1        0.0141
     29 C         140.6110  144.2792  160.7232 C.ar    1  UNL1        0.0462
     30 N         141.4643  145.2995  160.0298 N.am    1  UNL1       -0.2842
     31 H         141.9301  145.9901  160.5544 H       1  UNL1        0.1548
@<TRIPOS>BOND
     1    20    21    2
     2    21    22    1
     3    22    23    1
     4    23    24    1
     5    24    25   ar
     6    25    26   ar
     7    26    17    1
     8    17    18    1
     9    17     1    1
    10     1     2    1
    11     2     3    1
    12     3     4    1
    13     4     5    1
    14     5     6    1
    15     5    10    1
    16    10    11   ar
    17    11    12   ar
    18    12    13   ar
    19    13    14   ar
    20    14    15    1
    21    14    16   ar
    22     5     7    1
    23     7     8    1
    24    26    27   ar
    25    27    28   ar
    26    28    29   ar
    27    29    30    1
    28    30    21   am
    29    29    24   ar
    30     8     2    1
    31    16    10   ar
    32    18    19    1
    33     6     9    1
    34    30    31    1
@<TRIPOS>MOLECULE
*****
 31 34 0 0 0
SMALL
GASTEIGER

@<TRIPOS>ATOM
      1 C         138.8721  138.6802  165.0991 C.3     1  UNL1        0.1063
      2 N         138.6828  139.8394  164.1661 N.3     1  UNL1       -0.2702
      3 C         137.6794  140.9064  164.4896 C.3     1  UNL1        0.0749
      4 C         137.4901  142.0655  163.5565 C.3     1  UNL1        0.0485
      5 C         138.3041  142.1577  162.3000 C.3     1  UNL1        0.1097
      6 O         137.4846  143.4075  162.1717 O.3     1  UNL1       -0.3826
      7 C         139.3076  141.0906  161.9765 C.3     1  UNL1        0.0485
      8 C         139.4969  139.9314  162.9095 C.3     1  UNL1        0.0749
      9 H         136.8921  143.4855  162.9357 H       1  UNL1        0.2107
     10 C         138.8336  142.6838  160.9989 C.ar    1  UNL1        0.0040
     11 C         138.5052  141.9797  159.7159 C.ar    1  UNL1       -0.0019
     12 C         139.0347  142.5058  158.4148 C.ar    1  UNL1        0.0021
     13 C         139.8925  143.7362  158.3968 C.ar    1  UNL1        0.0296
     14 C         140.2209  144.4403  159.6798 C.ar    1  UNL1        0.1399
     15 F         141.0787  145.6707  159.6618 F       1  UNL1       -0.2042
     16 C         139.6914  143.9142  160.9809 C.ar    1  UNL1        0.0276
     17 C         138.4140  138.7817  166.5239 C.3     1  UNL1        0.1486
     18 O         137.2072  138.0165  166.9800 O.3     1  UNL1       -0.3786
     19 H         136.8448  137.5108  166.2359 H       1  UNL1        0.2108
     20 O         143.4917  143.6864  170.9861 O.2     1  UNL1       -0.2748
     21 C         142.7429  142.8197  170.0175 C.2     1  UNL1        0.2264
     22 C         143.3277  142.5243  168.6682 C.3     1  UNL1        0.0901
     23 C         142.5789  141.6576  167.6996 C.3     1  UNL1        0.0372
     24 C         141.2453  141.0863  168.0804 C.ar    1  UNL1       -0.0085
     25 C         140.4965  140.2197  167.1118 C.ar    1  UNL1       -0.0049
     26 C         139.1628  139.6484  167.4925 C.ar    1  UNL1        0.0054
     27 C         138.5779  139.9438  168.8419 C.ar    1  UNL1       -0.0007
     28 C         139.3267  140.8105  169.8104 C.ar    1  UNL1        0.0141
     29 C         140.6605  141.3817  169.4297 C.ar    1  UNL1        0.0462
     30 N         141.4093  142.2484  170.3982 N.am    1  UNL1       -0.2842
     31 H         141.0254  142.4423  171.2838 H       1  UNL1        0.1548
@<TRIPOS>BOND
     1    20    21    2
     2    21    22    1
     3    22    23    1
     4    23    24    1
     5    24    25   ar
     6    25    26   ar
     7    26    17    1
     8    17    18    1
     9    17     1    1
    10     1     2    1
    11     2     3    1
    12     3     4    1
    13     4     5    1
    14     5     6    1
    15     5    10    1
    16    10    11   ar
    17    11    12   ar
    18    12    13   ar
    19    13    14   ar
    20    14    15    1
    21    14    16   ar
    22     5     7    1
    23     7     8    1
    24    26    27   ar
    25    27    28   ar
    26    28    29   ar
    27    29    30    1
    28    30    21   am
    29    29    24   ar
    30     8     2    1
    31    16    10   ar
    32    18    19    1
    33     6     9    1
    34    30    31    1
@<TRIPOS>MOLECULE
*****
 31 34 0 0 0
SMALL
GASTEIGER

@<TRIPOS>ATOM
      1 C         142.5333  141.4809  167.2144 C.3     1  UNL1        0.1063
      2 N         142.6018  142.3883  166.0219 N.3     1  UNL1       -0.2702
      3 C         143.8793  143.1038  165.6963 C.3     1  UNL1        0.0749
      4 C         143.9478  144.0112  164.5039 C.3     1  UNL1        0.0485
      5 C         142.7389  144.2030  163.6369 C.3     1  UNL1        0.1097
      6 O         143.7141  145.0924  162.9243 O.3     1  UNL1       -0.3826
      7 C         141.4613  143.4874  163.9625 C.3     1  UNL1        0.0485
      8 C         141.3928  142.5800  165.1549 C.3     1  UNL1        0.0749
      9 H         144.5680  145.0698  163.3840 H       1  UNL1        0.2107
     10 C         141.8686  144.7037  162.5225 C.ar    1  UNL1        0.0040
     11 C         140.7388  145.6450  162.8182 C.ar    1  UNL1       -0.0019
     12 C         139.8685  146.1457  161.7037 C.ar    1  UNL1        0.0021
     13 C         140.1280  145.7050  160.2936 C.ar    1  UNL1        0.0296
     14 C         141.2578  144.7637  159.9979 C.ar    1  UNL1        0.1399
     15 F         141.5173  144.3230  158.5878 F       1  UNL1       -0.2042
     16 C         142.1281  144.2630  161.1124 C.ar    1  UNL1        0.0276
     17 C         142.7482  140.0057  167.0477 C.3     1  UNL1        0.1486
     18 O         143.1237  139.1640  168.2311 O.3     1  UNL1       -0.3786
     19 H         143.1855  139.7248  169.0201 H       1  UNL1        0.2108
     20 O         142.8915  137.1878  159.1871 O.2     1  UNL1       -0.2748
     21 C         143.0522  137.8212  160.5373 C.2     1  UNL1        0.2264
     22 C         144.1597  138.8038  160.7777 C.3     1  UNL1        0.0901
     23 C         144.3204  139.4372  162.1279 C.3     1  UNL1        0.0372
     24 C         143.3736  139.0880  163.2376 C.ar    1  UNL1       -0.0085
     25 C         143.5343  139.7215  164.5878 C.ar    1  UNL1       -0.0049
     26 C         142.5875  139.3723  165.6975 C.ar    1  UNL1        0.0054
     27 C         141.4799  138.3896  165.4571 C.ar    1  UNL1       -0.0007
     28 C         141.3192  137.7562  164.1069 C.ar    1  UNL1        0.0141
     29 C         142.2661  138.1054  162.9972 C.ar    1  UNL1        0.0462
     30 N         142.1054  137.4720  161.6470 N.am    1  UNL1       -0.2842
     31 H         141.3785  136.8271  161.4892 H       1  UNL1        0.1548
@<TRIPOS>BOND
     1    20    21    2
     2    21    22    1
     3    22    23    1
     4    23    24    1
     5    24    25   ar
     6    25    26   ar
     7    26    17    1
     8    17    18    1
     9    17     1    1
    10     1     2    1
    11     2     3    1
    12     3     4    1
    13     4     5    1
    14     5     6    1
    15     5    10    1
    16    10    11   ar
    17    11    12   ar
    18    12    13   ar
    19    13    14   ar
    20    14    15    1
    21    14    16   ar
    22     5     7    1
    23     7     8    1
    24    26    27   ar
    25    27    28   ar
    26    28    29   ar
    27    29    30    1
    28    30    21   am
    29    29    24   ar
    30     8     2    1
    31    16    10   ar
    32    18    19    1
    33     6     9    1
    34    30    31    1
@<TRIPOS>MOLECULE
*****
 31 34 0 0 0
SMALL
GASTEIGER

@<TRIPOS>ATOM
      1 C         141.9481  145.0964  163.0952 C.3     1  UNL1        0.1063
      2 N         141.9514  144.1755  164.2792 N.3     1  UNL1       -0.2702
      3 C         143.2096  143.4567  164.6668 C.3     1  UNL1        0.0749
      4 C         143.2130  142.5359  165.8509 C.3     1  UNL1        0.0485
      5 C         141.9581  142.3338  166.6474 C.3     1  UNL1        0.1097
      6 O         142.8934  141.4366  167.4027 O.3     1  UNL1       -0.3826
      7 C         140.6998  143.0526  166.2598 C.3     1  UNL1        0.0485
      8 C         140.6965  143.9734  165.0758 C.3     1  UNL1        0.0749
      9 H         143.7713  141.4648  166.9912 H       1  UNL1        0.2107
     10 C         141.0280  141.8201  167.7062 C.ar    1  UNL1        0.0040
     11 C         140.4180  140.4565  167.5713 C.ar    1  UNL1       -0.0019
     12 C         139.4879  139.9428  168.6301 C.ar    1  UNL1        0.0021
     13 C         139.1679  140.7928  169.8239 C.ar    1  UNL1        0.0296
     14 C         139.7779  142.1565  169.9588 C.ar    1  UNL1        0.1399
     15 F         139.4579  143.0065  171.1525 F       1  UNL1       -0.2042
     16 C         140.7080  142.6701  168.8999 C.ar    1  UNL1        0.0276
     17 C         141.3745  144.6352  161.7881 C.3     1  UNL1        0.1486
     18 O         141.7892  145.3022  160.5101 O.3     1  UNL1       -0.3786
     19 H         142.4283  146.0054  160.7050 H       1  UNL1        0.2108
     20 O         136.9131  137.5812  161.4940 O.2     1  UNL1       -0.2748
     21 C         137.9013  138.7093  161.5231 C.2     1  UNL1        0.2264
     22 C         139.3690  138.4240  161.4036 C.3     1  UNL1        0.0901
     23 C         140.3572  139.5521  161.4327 C.3     1  UNL1        0.0372
     24 C         139.8777  140.9656  161.5813 C.ar    1  UNL1       -0.0085
     25 C         140.8659  142.0937  161.6104 C.ar    1  UNL1       -0.0049
     26 C         140.3863  143.5071  161.7590 C.ar    1  UNL1        0.0054
     27 C         138.9185  143.7925  161.8785 C.ar    1  UNL1       -0.0007
     28 C         137.9304  142.6644  161.8494 C.ar    1  UNL1        0.0141
     29 C         138.4100  141.2509  161.7008 C.ar    1  UNL1        0.0462
     30 N         137.4218  140.1228  161.6717 N.am    1  UNL1       -0.2842
     31 H         136.4584  140.3101  161.7502 H       1  UNL1        0.1548
@<TRIPOS>BOND
     1    20    21    2
     2    21    22    1
     3    22    23    1
     4    23    24    1
     5    24    25   ar
     6    25    26   ar
     7    26    17    1
     8    17    18    1
     9    17     1    1
    10     1     2    1
    11     2     3    1
    12     3     4    1
    13     4     5    1
    14     5     6    1
    15     5    10    1
    16    10    11   ar
    17    11    12   ar
    18    12    13   ar
    19    13    14   ar
    20    14    15    1
    21    14    16   ar
    22     5     7    1
    23     7     8    1
    24    26    27   ar
    25    27    28   ar
    26    28    29   ar
    27    29    30    1
    28    30    21   am
    29    29    24   ar
    30     8     2    1
    31    16    10   ar
    32    18    19    1
    33     6     9    1
    34    30    31    1
