@<TRIPOS>MOLECULE
*****
 40 44 0 0 0
SMALL
GASTEIGER

@<TRIPOS>ATOM
      1 C         139.3303  140.6996  164.5012 C.3     1  UNL1        0.0832
      2 C         138.3722  139.9308  165.3619 C.3     1  UNL1        0.0374
      3 C         138.6844  139.7008  166.8109 C.3     1  UNL1        0.0738
      4 N         139.9547  140.2396  167.3991 N.3     1  UNL1       -0.2721
      5 C         140.9129  141.0084  166.5384 C.3     1  UNL1        0.0829
      6 C         140.6006  141.2384  165.0894 C.3     1  UNL1        0.1103
      7 O         139.8840  138.5460  162.4873 O.2     1  UNL1       -0.2684
      8 C         139.2950  139.8528  162.0452 C.2     1  UNL1        0.2669
      9 N         139.0181  140.9296  163.0521 N.am    1  UNL1       -0.3006
     10 H         138.6316  141.7873  162.7620 H       1  UNL1        0.1497
     11 C         138.9828  140.0828  160.5962 C.ar    1  UNL1        0.1761
     12 C         138.7729  141.4153  159.9402 C.ar    1  UNL1        0.0673
     13 C         138.4861  141.1767  158.4873 C.ar    1  UNL1        0.1792
     14 O         138.5188  139.6967  158.2454 O.2     1  UNL1       -0.3532
     15 N         138.8258  139.0206  159.5488 N.ar    1  UNL1       -0.0723
     16 C         138.2143  142.2327  157.4572 C.ar    1  UNL1        0.0648
     17 C         139.1871  143.3576  157.2616 C.ar    1  UNL1        0.0077
     18 C         138.9153  144.4136  156.2315 C.ar    1  UNL1        0.0299
     19 C         137.6708  144.3446  155.3971 C.ar    1  UNL1        0.1424
     20 F         137.3990  145.4005  154.3670 F       1  UNL1       -0.2041
     21 C         136.6981  143.2197  155.5927 C.ar    1  UNL1        0.0593
     22 C         136.9698  142.1638  156.6228 C.ar    1  UNL1        0.1453
     23 F         135.9971  141.0388  156.8184 F       1  UNL1       -0.2040
     24 C         141.5588  142.0072  164.2285 C.2     1  UNL1        0.2252
     25 O         142.2301  141.3345  163.0681 O.2     1  UNL1       -0.2750
     26 N         141.8455  143.4487  164.5283 N.am    1  UNL1       -0.3010
     27 H         141.4049  143.8902  165.2899 H       1  UNL1        0.1497
     28 C         142.8036  144.2175  163.6675 C.3     1  UNL1        0.1089
     29 C         144.0878  144.8166  163.1757 C.3     1  UNL1        0.0274
     30 C         144.0755  143.9957  164.4312 C.3     1  UNL1        0.0274
     31 C         141.8645  144.7064  162.6049 C.ar    1  UNL1        0.1549
     32 N         142.2062  144.5164  161.1568 N.ar    1  UNL1       -0.2276
     33 C         141.2671  145.0053  160.0941 C.ar    1  UNL1        0.1019
     34 C         139.9863  145.6840  160.4797 C.ar    1  UNL1        0.0413
     35 C         139.6446  145.8740  161.9278 C.ar    1  UNL1        0.1019
     36 N         140.5836  145.3852  162.9905 N.ar    1  UNL1       -0.2276
     37 C         140.2669  140.0096  168.8482 C.3     1  UNL1        0.0750
     38 C         139.4855  140.7292  169.9072 C.3     1  UNL1        0.0554
     39 C         139.7505  142.1805  170.1788 C.3     1  UNL1        0.1947
     40 F         140.1238  143.0983  169.0527 F       1  UNL1       -0.2343
@<TRIPOS>BOND
     1     7     8    2
     2     8     9   am
     3     1     9    1
     4     1     2    1
     5     2     3    1
     6     3     4    1
     7     4    37    1
     8    37    38    1
     9    38    39    1
    10    39    40    1
    11     4     5    1
    12     5     6    1
    13     6    24    1
    14    24    25    2
    15    24    26   am
    16    26    28    1
    17    28    31    1
    18    31    32   ar
    19    32    33   ar
    20    33    34   ar
    21    34    35   ar
    22    35    36   ar
    23    28    29    1
    24    29    30    1
    25     8    11    1
    26    11    12   ar
    27    12    13   ar
    28    13    16    1
    29    16    17   ar
    30    17    18   ar
    31    18    19   ar
    32    19    20    1
    33    19    21   ar
    34    21    22   ar
    35    22    23    1
    36    13    14   ar
    37    14    15   ar
    38     6     1    1
    39    30    28    1
    40    15    11   ar
    41    36    31   ar
    42    22    16   ar
    43     9    10    1
    44    26    27    1
@<TRIPOS>MOLECULE
*****
 40 44 0 0 0
SMALL
GASTEIGER

@<TRIPOS>ATOM
      1 C         140.8557  143.7036  161.0060 C.3     1  UNL1        0.0832
      2 C         140.5614  145.1299  160.6468 C.3     1  UNL1        0.0374
      3 C         140.3486  145.5134  159.2124 C.3     1  UNL1        0.0738
      4 N         140.4301  144.4707  158.1372 N.3     1  UNL1       -0.2721
      5 C         140.7244  143.0444  158.4964 C.3     1  UNL1        0.0829
      6 C         140.9372  142.6609  159.9308 C.3     1  UNL1        0.1103
      7 O         143.5879  143.9173  162.2264 O.2     1  UNL1       -0.2684
      8 C         142.4346  143.4268  163.0506 C.2     1  UNL1        0.2669
      9 N         141.0685  143.3199  162.4405 N.am    1  UNL1       -0.3006
     10 H         140.3116  142.9980  162.9814 H       1  UNL1        0.1497
     11 C         142.6475  143.0432  164.4850 C.ar    1  UNL1        0.1761
     12 C         141.6577  142.3399  165.3658 C.ar    1  UNL1        0.0673
     13 C         142.2859  142.1576  166.7157 C.ar    1  UNL1        0.1792
     14 O         143.6641  142.7482  166.6691 O.2     1  UNL1       -0.3532
     15 N         143.8874  143.2955  165.2905 N.ar    1  UNL1       -0.0723
     16 C         141.6482  141.5001  167.9035 C.ar    1  UNL1        0.0648
     17 C         140.5285  142.1858  168.6289 C.ar    1  UNL1        0.0077
     18 C         139.8907  141.5283  169.8168 C.ar    1  UNL1        0.0299
     19 C         140.3726  140.1852  170.2791 C.ar    1  UNL1        0.1424
     20 F         139.7348  139.5277  171.4669 F       1  UNL1       -0.2041
     21 C         141.4922  139.4996  169.5537 C.ar    1  UNL1        0.0593
     22 C         142.1299  140.1570  168.3659 C.ar    1  UNL1        0.1453
     23 F         143.2496  139.4714  167.6404 F       1  UNL1       -0.2040
     24 C         141.2314  141.2345  160.2900 C.2     1  UNL1        0.2252
     25 O         140.1907  140.4055  160.9825 O.2     1  UNL1       -0.2750
     26 N         142.5664  140.6373  159.9567 N.am    1  UNL1       -0.3010
     27 H         143.2495  141.1814  159.5022 H       1  UNL1        0.1497
     28 C         142.8607  139.2110  160.3159 C.3     1  UNL1        0.1089
     29 C         142.9727  137.7204  160.1914 C.3     1  UNL1        0.0274
     30 C         142.4378  138.5304  159.0478 C.3     1  UNL1        0.0274
     31 C         143.3858  139.3962  161.7087 C.ar    1  UNL1        0.1549
     32 N         144.5161  140.3488  161.9637 N.ar    1  UNL1       -0.2276
     33 C         145.0413  140.5340  163.3565 C.ar    1  UNL1        0.1019
     34 C         144.4362  139.7665  164.4944 C.ar    1  UNL1        0.0413
     35 C         143.3059  138.8139  164.2394 C.ar    1  UNL1        0.1019
     36 N         142.7808  138.6286  162.8466 N.ar    1  UNL1       -0.2276
     37 C         140.2173  144.8544  156.7027 C.3     1  UNL1        0.0750
     38 C         140.3822  146.2829  156.2761 C.3     1  UNL1        0.0554
     39 C         139.1765  147.1592  156.1074 C.3     1  UNL1        0.1947
     40 F         138.7442  148.0630  157.2238 F       1  UNL1       -0.2343
@<TRIPOS>BOND
     1     7     8    2
     2     8     9   am
     3     1     9    1
     4     1     2    1
     5     2     3    1
     6     3     4    1
     7     4    37    1
     8    37    38    1
     9    38    39    1
    10    39    40    1
    11     4     5    1
    12     5     6    1
    13     6    24    1
    14    24    25    2
    15    24    26   am
    16    26    28    1
    17    28    31    1
    18    31    32   ar
    19    32    33   ar
    20    33    34   ar
    21    34    35   ar
    22    35    36   ar
    23    28    29    1
    24    29    30    1
    25     8    11    1
    26    11    12   ar
    27    12    13   ar
    28    13    16    1
    29    16    17   ar
    30    17    18   ar
    31    18    19   ar
    32    19    20    1
    33    19    21   ar
    34    21    22   ar
    35    22    23    1
    36    13    14   ar
    37    14    15   ar
    38     6     1    1
    39    30    28    1
    40    15    11   ar
    41    36    31   ar
    42    22    16   ar
    43     9    10    1
    44    26    27    1
@<TRIPOS>MOLECULE
*****
 40 44 0 0 0
SMALL
GASTEIGER

@<TRIPOS>ATOM
      1 C         142.1548  139.4577  164.5926 C.3     1  UNL1        0.0832
      2 C         142.9510  138.5204  165.4512 C.3     1  UNL1        0.0374
      3 C         143.0797  138.7780  166.9233 C.3     1  UNL1        0.0738
      4 N         142.4121  139.9730  167.5367 N.3     1  UNL1       -0.2721
      5 C         141.6158  140.9103  166.6781 C.3     1  UNL1        0.0829
      6 C         141.4872  140.6527  165.2060 C.3     1  UNL1        0.1103
      7 O         144.4786  139.9826  162.7693 O.2     1  UNL1       -0.2684
      8 C         143.1880  139.4626  162.2088 C.2     1  UNL1        0.2669
      9 N         142.0261  139.2002  163.1204 N.am    1  UNL1       -0.3006
     10 H         141.1791  138.8589  162.7526 H       1  UNL1        0.1497
     11 C         143.0594  139.2050  160.7367 C.ar    1  UNL1        0.1761
     12 C         141.8046  138.8069  160.0176 C.ar    1  UNL1        0.0673
     13 C         142.1327  138.6562  158.5617 C.ar    1  UNL1        0.1792
     14 O         143.5902  138.9612  158.3810 O.2     1  UNL1       -0.3532
     15 N         144.1629  139.3004  159.7252 N.ar    1  UNL1       -0.0723
     16 C         141.1719  138.2685  157.4769 C.ar    1  UNL1        0.0648
     17 C         140.0428  139.1861  157.1120 C.ar    1  UNL1        0.0077
     18 C         139.0821  138.7985  156.0272 C.ar    1  UNL1        0.0299
     19 C         139.2505  137.4933  155.3074 C.ar    1  UNL1        0.1424
     20 F         138.2897  137.1056  154.2227 F       1  UNL1       -0.2041
     21 C         140.3795  136.5758  155.6724 C.ar    1  UNL1        0.0593
     22 C         141.3403  136.9634  156.7571 C.ar    1  UNL1        0.1453
     23 F         142.4694  136.0459  157.1221 F       1  UNL1       -0.2040
     24 C         140.6909  141.5901  164.3473 C.2     1  UNL1        0.2252
     25 O         141.3823  142.4367  163.3202 O.2     1  UNL1       -0.2750
     26 N         139.2031  141.6808  164.5158 N.am    1  UNL1       -0.3010
     27 H         138.7493  141.1252  165.1900 H       1  UNL1        0.1497
     28 C         138.4069  142.6182  163.6572 C.3     1  UNL1        0.1089
     29 C         137.6668  143.8492  163.2251 C.3     1  UNL1        0.0274
     30 C         138.2922  143.7895  164.5872 C.3     1  UNL1        0.0274
     31 C         138.2450  141.7724  162.4290 C.ar    1  UNL1        0.1549
     32 N         137.7678  140.3557  162.5516 N.ar    1  UNL1       -0.2276
     33 C         137.6059  139.5098  161.3233 C.ar    1  UNL1        0.1019
     34 C         137.9212  140.0809  159.9726 C.ar    1  UNL1        0.0413
     35 C         138.3983  141.4977  159.8501 C.ar    1  UNL1        0.1019
     36 N         138.5602  142.3435  161.0782 N.ar    1  UNL1       -0.2276
     37 C         142.5407  140.2306  169.0089 C.3     1  UNL1        0.0750
     38 C         141.5684  139.6088  169.9669 C.3     1  UNL1        0.0554
     39 C         140.1652  140.1315  170.0562 C.3     1  UNL1        0.1947
     40 F         139.2117  139.9189  168.9180 F       1  UNL1       -0.2343
@<TRIPOS>BOND
     1     7     8    2
     2     8     9   am
     3     1     9    1
     4     1     2    1
     5     2     3    1
     6     3     4    1
     7     4    37    1
     8    37    38    1
     9    38    39    1
    10    39    40    1
    11     4     5    1
    12     5     6    1
    13     6    24    1
    14    24    25    2
    15    24    26   am
    16    26    28    1
    17    28    31    1
    18    31    32   ar
    19    32    33   ar
    20    33    34   ar
    21    34    35   ar
    22    35    36   ar
    23    28    29    1
    24    29    30    1
    25     8    11    1
    26    11    12   ar
    27    12    13   ar
    28    13    16    1
    29    16    17   ar
    30    17    18   ar
    31    18    19   ar
    32    19    20    1
    33    19    21   ar
    34    21    22   ar
    35    22    23    1
    36    13    14   ar
    37    14    15   ar
    38     6     1    1
    39    30    28    1
    40    15    11   ar
    41    36    31   ar
    42    22    16   ar
    43     9    10    1
    44    26    27    1
@<TRIPOS>MOLECULE
*****
 40 44 0 0 0
SMALL
GASTEIGER

@<TRIPOS>ATOM
      1 C         143.6262  141.0969  160.7566 C.3     1  UNL1        0.0832
      2 C         144.6151  142.2246  160.7416 C.3     1  UNL1        0.0374
      3 C         144.4272  143.3990  161.6556 C.3     1  UNL1        0.0738
      4 N         143.2503  143.4457  162.5845 N.3     1  UNL1       -0.2721
      5 C         142.2614  142.3180  162.5994 C.3     1  UNL1        0.0829
      6 C         142.4493  141.1436  161.6855 C.3     1  UNL1        0.1103
      7 O         142.3365  141.0826  158.0480 O.2     1  UNL1       -0.2684
      8 C         143.1692  139.9152  158.4883 C.2     1  UNL1        0.2669
      9 N         143.8141  139.9223  159.8426 N.am    1  UNL1       -0.3006
     10 H         144.3606  139.1562  160.1317 H       1  UNL1        0.1497
     11 C         143.3571  138.7407  157.5744 C.ar    1  UNL1        0.1761
     12 C         142.6632  137.4157  157.6875 C.ar    1  UNL1        0.0673
     13 C         143.1491  136.5411  156.5699 C.ar    1  UNL1        0.1792
     14 O         144.1433  137.3257  155.7661 O.2     1  UNL1       -0.3532
     15 N         144.2718  138.6851  156.3869 N.ar    1  UNL1       -0.0723
     16 C         142.7167  135.1298  156.3029 C.ar    1  UNL1        0.0648
     17 C         141.7674  134.8361  155.1793 C.ar    1  UNL1        0.0077
     18 C         141.3350  133.4248  154.9123 C.ar    1  UNL1        0.0299
     19 C         141.8520  132.3072  155.7690 C.ar    1  UNL1        0.1424
     20 F         141.4197  130.8960  155.5020 F       1  UNL1       -0.2041
     21 C         142.8013  132.6010  156.8925 C.ar    1  UNL1        0.0593
     22 C         143.2337  134.0123  157.1595 C.ar    1  UNL1        0.1453
     23 F         144.1830  134.3061  158.2831 F       1  UNL1       -0.2040
     24 C         141.4604  140.0158  161.7004 C.2     1  UNL1        0.2252
     25 O         141.9419  138.5956  161.6687 O.2     1  UNL1       -0.2750
     26 N         139.9899  140.3083  161.7471 N.am    1  UNL1       -0.3010
     27 H         139.6739  141.2405  161.7679 H       1  UNL1        0.1497
     28 C         139.0010  139.1806  161.7620 C.3     1  UNL1        0.1089
     29 C         138.0819  138.1052  161.2634 C.3     1  UNL1        0.0274
     30 C         138.8587  138.9395  160.2884 C.3     1  UNL1        0.0274
     31 C         138.7998  139.0301  163.2408 C.ar    1  UNL1        0.1549
     32 N         138.4690  140.2295  164.0786 N.ar    1  UNL1       -0.2276
     33 C         138.2678  140.0791  165.5575 C.ar    1  UNL1        0.1019
     34 C         138.3975  138.7292  166.1984 C.ar    1  UNL1        0.0413
     35 C         138.7283  137.5298  165.3606 C.ar    1  UNL1        0.1019
     36 N         138.9295  137.6802  163.8818 N.ar    1  UNL1       -0.2276
     37 C         143.0624  144.6203  163.4984 C.3     1  UNL1        0.0750
     38 C         143.9230  144.7666  164.7182 C.3     1  UNL1        0.0554
     39 C         144.4598  143.5476  165.4081 C.3     1  UNL1        0.1947
     40 F         145.3981  142.6282  164.6841 F       1  UNL1       -0.2343
@<TRIPOS>BOND
     1     7     8    2
     2     8     9   am
     3     1     9    1
     4     1     2    1
     5     2     3    1
     6     3     4    1
     7     4    37    1
     8    37    38    1
     9    38    39    1
    10    39    40    1
    11     4     5    1
    12     5     6    1
    13     6    24    1
    14    24    25    2
    15    24    26   am
    16    26    28    1
    17    28    31    1
    18    31    32   ar
    19    32    33   ar
    20    33    34   ar
    21    34    35   ar
    22    35    36   ar
    23    28    29    1
    24    29    30    1
    25     8    11    1
    26    11    12   ar
    27    12    13   ar
    28    13    16    1
    29    16    17   ar
    30    17    18   ar
    31    18    19   ar
    32    19    20    1
    33    19    21   ar
    34    21    22   ar
    35    22    23    1
    36    13    14   ar
    37    14    15   ar
    38     6     1    1
    39    30    28    1
    40    15    11   ar
    41    36    31   ar
    42    22    16   ar
    43     9    10    1
    44    26    27    1
@<TRIPOS>MOLECULE
*****
 40 44 0 0 0
SMALL
GASTEIGER

@<TRIPOS>ATOM
      1 C         142.2720  140.0474  165.8606 C.3     1  UNL1        0.0832
      2 C         142.9449  139.2663  166.9501 C.3     1  UNL1        0.0374
      3 C         142.4806  139.4060  168.3695 C.3     1  UNL1        0.0738
      4 N         141.3434  140.3268  168.6995 N.3     1  UNL1       -0.2721
      5 C         140.6705  141.1079  167.6100 C.3     1  UNL1        0.0829
      6 C         141.1348  140.9682  166.1906 C.3     1  UNL1        0.1103
      7 O         141.1238  137.8974  164.1115 O.2     1  UNL1       -0.2684
      8 C         142.1622  138.8328  163.5665 C.2     1  UNL1        0.2669
      9 N         142.7363  139.9078  164.4411 N.am    1  UNL1       -0.3006
     10 H         143.4178  140.5217  164.0834 H       1  UNL1        0.1497
     11 C         142.6265  138.6931  162.1471 C.ar    1  UNL1        0.1761
     12 C         141.7782  138.2896  160.9776 C.ar    1  UNL1        0.0673
     13 C         142.6479  138.2795  159.7556 C.ar    1  UNL1        0.1792
     14 O         144.0338  138.6768  160.1698 O.2     1  UNL1       -0.3532
     15 N         144.0205  138.9323  161.6478 N.ar    1  UNL1       -0.0723
     16 C         142.2089  137.9331  158.3637 C.ar    1  UNL1        0.0648
     17 C         142.7861  136.7337  157.6720 C.ar    1  UNL1        0.0077
     18 C         142.3471  136.3873  156.2801 C.ar    1  UNL1        0.0299
     19 C         141.3310  137.2401  155.5801 C.ar    1  UNL1        0.1424
     20 F         140.8920  136.8937  154.1883 F       1  UNL1       -0.2041
     21 C         140.7538  138.4394  156.2718 C.ar    1  UNL1        0.0593
     22 C         141.1928  138.7858  157.6637 C.ar    1  UNL1        0.1453
     23 F         140.6157  139.9852  158.3554 F       1  UNL1       -0.2040
     24 C         140.4618  141.7493  165.1010 C.2     1  UNL1        0.2252
     25 O         141.2861  142.4983  164.0963 O.2     1  UNL1       -0.2750
     26 N         138.9646  141.7814  165.0162 N.am    1  UNL1       -0.3010
     27 H         138.4236  141.2898  165.6757 H       1  UNL1        0.1497
     28 C         138.2916  142.5625  163.9267 C.3     1  UNL1        0.1089
     29 C         137.6475  143.7098  163.2065 C.3     1  UNL1        0.0274
     30 C         138.1410  143.8884  164.6117 C.3     1  UNL1        0.0274
     31 C         138.2085  141.5078  162.8634 C.ar    1  UNL1        0.1549
     32 N         138.2089  141.9007  161.4157 N.ar    1  UNL1       -0.2276
     33 C         138.1258  140.8460  160.3523 C.ar    1  UNL1        0.1019
     34 C         138.0422  139.3985  160.7365 C.ar    1  UNL1        0.0413
     35 C         138.0418  139.0057  162.1842 C.ar    1  UNL1        0.1019
     36 N         138.1249  140.0603  163.2476 N.ar    1  UNL1       -0.2276
     37 C         140.8791  140.4664  170.1190 C.3     1  UNL1        0.0750
     38 C         140.9785  141.7921  170.8136 C.3     1  UNL1        0.0554
     39 C         139.8901  142.8106  170.6453 C.3     1  UNL1        0.1947
     40 F         140.1378  144.0451  169.8302 F       1  UNL1       -0.2343
@<TRIPOS>BOND
     1     7     8    2
     2     8     9   am
     3     1     9    1
     4     1     2    1
     5     2     3    1
     6     3     4    1
     7     4    37    1
     8    37    38    1
     9    38    39    1
    10    39    40    1
    11     4     5    1
    12     5     6    1
    13     6    24    1
    14    24    25    2
    15    24    26   am
    16    26    28    1
    17    28    31    1
    18    31    32   ar
    19    32    33   ar
    20    33    34   ar
    21    34    35   ar
    22    35    36   ar
    23    28    29    1
    24    29    30    1
    25     8    11    1
    26    11    12   ar
    27    12    13   ar
    28    13    16    1
    29    16    17   ar
    30    17    18   ar
    31    18    19   ar
    32    19    20    1
    33    19    21   ar
    34    21    22   ar
    35    22    23    1
    36    13    14   ar
    37    14    15   ar
    38     6     1    1
    39    30    28    1
    40    15    11   ar
    41    36    31   ar
    42    22    16   ar
    43     9    10    1
    44    26    27    1
@<TRIPOS>MOLECULE
*****
 40 44 0 0 0
SMALL
GASTEIGER

@<TRIPOS>ATOM
      1 C         142.4694  139.0148  161.2641 C.3     1  UNL1        0.0832
      2 C         142.6467  137.6554  160.6554 C.3     1  UNL1        0.0374
      3 C         142.9217  137.5213  159.1870 C.3     1  UNL1        0.0738
      4 N         143.0195  138.7466  158.3273 N.3     1  UNL1       -0.2721
      5 C         142.8423  140.1060  158.9360 C.3     1  UNL1        0.0829
      6 C         142.5672  140.2401  160.4044 C.3     1  UNL1        0.1103
      7 O         144.7469  139.1017  163.2149 O.2     1  UNL1       -0.2684
      8 C         143.3331  139.1924  163.7080 C.2     1  UNL1        0.2669
      9 N         142.1944  139.1490  162.7326 N.am    1  UNL1       -0.3006
     10 H         141.2665  139.2085  163.0562 H       1  UNL1        0.1497
     11 C         143.0581  139.3266  165.1765 C.ar    1  UNL1        0.1761
     12 C         142.1644  140.3472  165.8165 C.ar    1  UNL1        0.0673
     13 C         142.1825  140.1151  167.2983 C.ar    1  UNL1        0.1792
     14 O         143.0874  138.9509  167.5741 O.2     1  UNL1       -0.3532
     15 N         143.6286  138.4637  166.2627 N.ar    1  UNL1       -0.0723
     16 C         141.4282  140.9078  168.3242 C.ar    1  UNL1        0.0648
     17 C         140.1412  140.3780  168.8839 C.ar    1  UNL1        0.0077
     18 C         139.3869  141.1708  169.9098 C.ar    1  UNL1        0.0299
     19 C         139.9195  142.4933  170.3760 C.ar    1  UNL1        0.1424
     20 F         139.1651  143.2860  171.4019 F       1  UNL1       -0.2041
     21 C         141.2063  143.0230  169.8164 C.ar    1  UNL1        0.0593
     22 C         141.9606  142.2302  168.7905 C.ar    1  UNL1        0.1453
     23 F         143.2475  142.7600  168.2308 F       1  UNL1       -0.2040
     24 C         142.3900  141.5996  161.0132 C.2     1  UNL1        0.2252
     25 O         143.4792  142.1907  161.8582 O.2     1  UNL1       -0.2750
     26 N         141.1235  142.3678  160.7770 N.am    1  UNL1       -0.3010
     27 H         140.4086  141.9797  160.2224 H       1  UNL1        0.1497
     28 C         140.9462  143.7271  161.3858 C.3     1  UNL1        0.1089
     29 C         140.9550  145.2205  161.5268 C.3     1  UNL1        0.0274
     30 C         141.4205  144.5849  160.2502 C.3     1  UNL1        0.0274
     31 C         140.4104  143.3415  162.7327 C.ar    1  UNL1        0.1549
     32 N         140.9903  143.9529  163.9736 N.ar    1  UNL1       -0.2276
     33 C         140.4545  143.5673  165.3206 C.ar    1  UNL1        0.1019
     34 C         139.3388  142.5703  165.4266 C.ar    1  UNL1        0.0413
     35 C         138.7589  141.9590  164.1856 C.ar    1  UNL1        0.1019
     36 N         139.2947  142.3445  162.8387 N.ar    1  UNL1       -0.2276
     37 C         143.2946  138.6125  156.8588 C.3     1  UNL1        0.0750
     38 C         143.7314  139.8081  156.0653 C.3     1  UNL1        0.0554
     39 C         145.1765  140.2102  156.0489 C.3     1  UNL1        0.1947
     40 F         145.7074  141.1428  157.0968 F       1  UNL1       -0.2343
@<TRIPOS>BOND
     1     7     8    2
     2     8     9   am
     3     1     9    1
     4     1     2    1
     5     2     3    1
     6     3     4    1
     7     4    37    1
     8    37    38    1
     9    38    39    1
    10    39    40    1
    11     4     5    1
    12     5     6    1
    13     6    24    1
    14    24    25    2
    15    24    26   am
    16    26    28    1
    17    28    31    1
    18    31    32   ar
    19    32    33   ar
    20    33    34   ar
    21    34    35   ar
    22    35    36   ar
    23    28    29    1
    24    29    30    1
    25     8    11    1
    26    11    12   ar
    27    12    13   ar
    28    13    16    1
    29    16    17   ar
    30    17    18   ar
    31    18    19   ar
    32    19    20    1
    33    19    21   ar
    34    21    22   ar
    35    22    23    1
    36    13    14   ar
    37    14    15   ar
    38     6     1    1
    39    30    28    1
    40    15    11   ar
    41    36    31   ar
    42    22    16   ar
    43     9    10    1
    44    26    27    1
@<TRIPOS>MOLECULE
*****
 40 44 0 0 0
SMALL
GASTEIGER

@<TRIPOS>ATOM
      1 C         141.8189  143.0849  159.7615 C.3     1  UNL1        0.0832
      2 C         142.8436  143.3518  158.6991 C.3     1  UNL1        0.0374
      3 C         142.4720  144.1441  157.4809 C.3     1  UNL1        0.0738
      4 N         141.0757  144.6696  157.3251 N.3     1  UNL1       -0.2721
      5 C         140.0510  144.4028  158.3875 C.3     1  UNL1        0.0829
      6 C         140.4226  143.6105  159.6057 C.3     1  UNL1        0.1103
      7 O         143.3357  144.3917  161.9957 O.2     1  UNL1       -0.2684
      8 C         142.9489  142.9459  162.0969 C.2     1  UNL1        0.2669
      9 N         142.1905  142.2925  160.9798 N.am    1  UNL1       -0.3006
     10 H         141.9366  141.3437  161.0461 H       1  UNL1        0.1497
     11 C         143.3204  142.1536  163.3151 C.ar    1  UNL1        0.1761
     12 C         142.7273  142.3108  164.6839 C.ar    1  UNL1        0.0673
     13 C         143.3907  141.3193  165.5932 C.ar    1  UNL1        0.1792
     14 O         144.3938  140.5493  164.7864 O.2     1  UNL1       -0.3532
     15 N         144.3504  141.0650  163.3785 N.ar    1  UNL1       -0.0723
     16 C         143.1017  141.1309  167.0530 C.ar    1  UNL1        0.0648
     17 C         143.1273  142.3093  167.9808 C.ar    1  UNL1        0.0077
     18 C         142.8383  142.1209  169.4406 C.ar    1  UNL1        0.0299
     19 C         142.5237  140.7541  169.9725 C.ar    1  UNL1        0.1424
     20 F         142.2347  140.5657  171.4323 F       1  UNL1       -0.2041
     21 C         142.4981  139.5758  169.0447 C.ar    1  UNL1        0.0593
     22 C         142.7871  139.7642  167.5850 C.ar    1  UNL1        0.1453
     23 F         142.7615  138.5859  166.6571 F       1  UNL1       -0.2040
     24 C         139.3979  143.3436  160.6682 C.2     1  UNL1        0.2252
     25 O         138.0436  142.8215  160.2898 O.2     1  UNL1       -0.2750
     26 N         139.7276  143.5987  162.1091 N.am    1  UNL1       -0.3010
     27 H         140.6166  143.9414  162.3575 H       1  UNL1        0.1497
     28 C         138.7030  143.3319  163.1716 C.3     1  UNL1        0.1089
     29 C         137.5013  143.5188  164.0495 C.3     1  UNL1        0.0274
     30 C         137.8371  144.5459  163.0092 C.3     1  UNL1        0.0274
     31 C         139.2130  142.0252  163.7030 C.ar    1  UNL1        0.1549
     32 N         139.8631  141.0411  162.7763 N.ar    1  UNL1       -0.2276
     33 C         140.3732  139.7343  163.3077 C.ar    1  UNL1        0.1019
     34 C         140.2331  139.4118  164.7658 C.ar    1  UNL1        0.0413
     35 C         139.5830  140.3959  165.6926 C.ar    1  UNL1        0.1019
     36 N         139.0730  141.7026  165.1612 N.ar    1  UNL1       -0.2276
     37 C         140.7042  145.4620  156.1068 C.3     1  UNL1        0.0750
     38 C         139.9510  146.7511  156.2515 C.3     1  UNL1        0.0554
     39 C         138.8181  147.0665  155.3202 C.3     1  UNL1        0.1947
     40 F         137.7518  146.0435  155.0629 F       1  UNL1       -0.2343
@<TRIPOS>BOND
     1     7     8    2
     2     8     9   am
     3     1     9    1
     4     1     2    1
     5     2     3    1
     6     3     4    1
     7     4    37    1
     8    37    38    1
     9    38    39    1
    10    39    40    1
    11     4     5    1
    12     5     6    1
    13     6    24    1
    14    24    25    2
    15    24    26   am
    16    26    28    1
    17    28    31    1
    18    31    32   ar
    19    32    33   ar
    20    33    34   ar
    21    34    35   ar
    22    35    36   ar
    23    28    29    1
    24    29    30    1
    25     8    11    1
    26    11    12   ar
    27    12    13   ar
    28    13    16    1
    29    16    17   ar
    30    17    18   ar
    31    18    19   ar
    32    19    20    1
    33    19    21   ar
    34    21    22   ar
    35    22    23    1
    36    13    14   ar
    37    14    15   ar
    38     6     1    1
    39    30    28    1
    40    15    11   ar
    41    36    31   ar
    42    22    16   ar
    43     9    10    1
    44    26    27    1
@<TRIPOS>MOLECULE
*****
 40 44 0 0 0
SMALL
GASTEIGER

@<TRIPOS>ATOM
      1 C         142.7398  139.7195  160.9756 C.3     1  UNL1        0.0832
      2 C         142.8816  138.2265  160.9465 C.3     1  UNL1        0.0374
      3 C         142.9692  137.5070  159.6333 C.3     1  UNL1        0.0738
      4 N         142.9150  138.2804  158.3492 N.3     1  UNL1       -0.2721
      5 C         142.7731  139.7734  158.3783 C.3     1  UNL1        0.0829
      6 C         142.6855  140.4929  159.6915 C.3     1  UNL1        0.1103
      7 O         145.2138  140.8684  162.2243 O.2     1  UNL1       -0.2684
      8 C         143.8892  141.0136  162.9132 C.2     1  UNL1        0.2669
      9 N         142.6522  140.4391  162.2888 N.am    1  UNL1       -0.3006
     10 H         141.7828  140.5344  162.7409 H       1  UNL1        0.1497
     11 C         143.8016  141.7332  164.2264 C.ar    1  UNL1        0.1761
     12 C         142.9214  141.3566  165.3812 C.ar    1  UNL1        0.0673
     13 C         143.1547  142.3464  166.4838 C.ar    1  UNL1        0.1792
     14 O         144.1791  143.3347  166.0105 O.2     1  UNL1       -0.3532
     15 N         144.5789  142.9557  164.6153 N.ar    1  UNL1       -0.0723
     16 C         142.4818  142.3477  167.8244 C.ar    1  UNL1        0.0648
     17 C         143.2976  142.1900  169.0733 C.ar    1  UNL1        0.0077
     18 C         142.6247  142.1913  170.4138 C.ar    1  UNL1        0.0299
     19 C         141.1360  142.3503  170.5056 C.ar    1  UNL1        0.1424
     20 F         140.4631  142.3516  171.8461 F       1  UNL1       -0.2041
     21 C         140.3202  142.5080  169.2568 C.ar    1  UNL1        0.0593
     22 C         140.9932  142.5067  167.9162 C.ar    1  UNL1        0.1453
     23 F         140.1773  142.6644  166.6674 F       1  UNL1       -0.2040
     24 C         142.5436  141.9860  159.7206 C.2     1  UNL1        0.2252
     25 O         143.7642  142.8538  159.8039 O.2     1  UNL1       -0.2750
     26 N         141.1812  142.6110  159.6666 N.am    1  UNL1       -0.3010
     27 H         140.3801  142.0414  159.6119 H       1  UNL1        0.1497
     28 C         141.0392  144.1040  159.6957 C.3     1  UNL1        0.1089
     29 C         141.0215  145.5277  159.2237 C.3     1  UNL1        0.0274
     30 C         141.3475  144.4230  158.2628 C.3     1  UNL1        0.0274
     31 C         140.6817  144.3035  161.1387 C.ar    1  UNL1        0.1549
     32 N         141.7631  144.3853  162.1750 N.ar    1  UNL1       -0.2276
     33 C         141.4056  144.5849  163.6181 C.ar    1  UNL1        0.1019
     34 C         139.9666  144.7027  164.0248 C.ar    1  UNL1        0.0413
     35 C         138.8852  144.6209  162.9885 C.ar    1  UNL1        0.1019
     36 N         139.2427  144.4213  161.5455 N.ar    1  UNL1       -0.2276
     37 C         143.0026  137.5608  157.0359 C.3     1  UNL1        0.0750
     38 C         142.9029  136.0648  156.9924 C.3     1  UNL1        0.0554
     39 C         143.1491  135.3338  155.7058 C.3     1  UNL1        0.1947
     40 F         144.1241  134.1947  155.6652 F       1  UNL1       -0.2343
@<TRIPOS>BOND
     1     7     8    2
     2     8     9   am
     3     1     9    1
     4     1     2    1
     5     2     3    1
     6     3     4    1
     7     4    37    1
     8    37    38    1
     9    38    39    1
    10    39    40    1
    11     4     5    1
    12     5     6    1
    13     6    24    1
    14    24    25    2
    15    24    26   am
    16    26    28    1
    17    28    31    1
    18    31    32   ar
    19    32    33   ar
    20    33    34   ar
    21    34    35   ar
    22    35    36   ar
    23    28    29    1
    24    29    30    1
    25     8    11    1
    26    11    12   ar
    27    12    13   ar
    28    13    16    1
    29    16    17   ar
    30    17    18   ar
    31    18    19   ar
    32    19    20    1
    33    19    21   ar
    34    21    22   ar
    35    22    23    1
    36    13    14   ar
    37    14    15   ar
    38     6     1    1
    39    30    28    1
    40    15    11   ar
    41    36    31   ar
    42    22    16   ar
    43     9    10    1
    44    26    27    1
@<TRIPOS>MOLECULE
*****
 40 44 0 0 0
SMALL
GASTEIGER

@<TRIPOS>ATOM
      1 C         143.4241  141.8490  161.2338 C.3     1  UNL1        0.0832
      2 C         144.7446  142.4587  160.8670 C.3     1  UNL1        0.0374
      3 C         145.1346  142.5914  159.4247 C.3     1  UNL1        0.0738
      4 N         144.2041  142.1143  158.3492 N.3     1  UNL1       -0.2721
      5 C         142.8837  141.5046  158.7160 C.3     1  UNL1        0.0829
      6 C         142.4937  141.3720  160.1583 C.3     1  UNL1        0.1103
      7 O         144.3403  139.4753  162.8232 O.2     1  UNL1       -0.2684
      8 C         143.4921  140.5295  163.4708 C.2     1  UNL1        0.2669
      9 N         143.0340  141.7163  162.6762 N.am    1  UNL1       -0.3006
     10 H         142.4774  142.4082  163.1012 H       1  UNL1        0.1497
     11 C         143.1021  140.3968  164.9131 C.ar    1  UNL1        0.1761
     12 C         142.2430  141.3533  165.6858 C.ar    1  UNL1        0.0673
     13 C         142.1126  140.8319  167.0862 C.ar    1  UNL1        0.1792
     14 O         142.8912  139.5532  167.1790 O.2     1  UNL1       -0.3532
     15 N         143.5028  139.2843  165.8360 N.ar    1  UNL1       -0.0723
     16 C         141.3394  141.4762  168.1984 C.ar    1  UNL1        0.0648
     17 C         141.7756  142.8035  168.7443 C.ar    1  UNL1        0.0077
     18 C         141.0024  143.4477  169.8565 C.ar    1  UNL1        0.0299
     19 C         139.7931  142.7646  170.4229 C.ar    1  UNL1        0.1424
     20 F         139.0199  143.4089  171.5352 F       1  UNL1       -0.2041
     21 C         139.3569  141.4374  169.8771 C.ar    1  UNL1        0.0593
     22 C         140.1301  140.7931  168.7649 C.ar    1  UNL1        0.1453
     23 F         139.6939  139.4658  168.2190 F       1  UNL1       -0.2040
     24 C         141.1731  140.7623  160.5252 C.2     1  UNL1        0.2252
     25 O         141.1291  139.4803  161.3028 O.2     1  UNL1       -0.2750
     26 N         139.8967  141.4345  160.1144 N.am    1  UNL1       -0.3010
     27 H         139.9256  142.2759  159.6040 H       1  UNL1        0.1497
     28 C         138.5762  140.8249  160.4812 C.3     1  UNL1        0.1089
     29 C         137.3551  139.9569  160.4068 C.3     1  UNL1        0.0274
     30 C         138.4039  139.8692  159.3379 C.3     1  UNL1        0.0274
     31 C         138.2898  141.5687  161.7519 C.ar    1  UNL1        0.1549
     32 N         137.9842  143.0367  161.7090 N.ar    1  UNL1       -0.2276
     33 C         137.6979  143.7806  162.9797 C.ar    1  UNL1        0.1019
     34 C         137.7171  143.0566  164.2932 C.ar    1  UNL1        0.0413
     35 C         138.0227  141.5887  164.3361 C.ar    1  UNL1        0.1019
     36 N         138.3091  140.8447  163.0655 N.ar    1  UNL1       -0.2276
     37 C         144.5942  142.2470  156.9069 C.3     1  UNL1        0.0750
     38 C         145.9618  141.8251  156.4579 C.3     1  UNL1        0.0554
     39 C         146.4812  142.2646  155.1210 C.3     1  UNL1        0.1947
     40 F         146.7558  143.7165  154.8634 F       1  UNL1       -0.2343
@<TRIPOS>BOND
     1     7     8    2
     2     8     9   am
     3     1     9    1
     4     1     2    1
     5     2     3    1
     6     3     4    1
     7     4    37    1
     8    37    38    1
     9    38    39    1
    10    39    40    1
    11     4     5    1
    12     5     6    1
    13     6    24    1
    14    24    25    2
    15    24    26   am
    16    26    28    1
    17    28    31    1
    18    31    32   ar
    19    32    33   ar
    20    33    34   ar
    21    34    35   ar
    22    35    36   ar
    23    28    29    1
    24    29    30    1
    25     8    11    1
    26    11    12   ar
    27    12    13   ar
    28    13    16    1
    29    16    17   ar
    30    17    18   ar
    31    18    19   ar
    32    19    20    1
    33    19    21   ar
    34    21    22   ar
    35    22    23    1
    36    13    14   ar
    37    14    15   ar
    38     6     1    1
    39    30    28    1
    40    15    11   ar
    41    36    31   ar
    42    22    16   ar
    43     9    10    1
    44    26    27    1
