@<TRIPOS>MOLECULE
*****
 36 39 0 0 0
SMALL
GASTEIGER

@<TRIPOS>ATOM
      1 C         141.2009  139.4108  157.8763 C.ar    1  UNL1        0.0587
      2 C         140.1194  138.5205  157.3398 C.ar    1  UNL1        0.0166
      3 C         140.4781  137.2468  156.6334 C.ar    1  UNL1        0.0160
      4 C         141.9183  136.8633  156.4635 C.ar    1  UNL1        0.0512
      5 C         142.9997  137.7536  157.0001 C.ar    1  UNL1        0.0273
      6 C         142.6410  139.0273  157.7064 C.ar    1  UNL1        0.0722
      7 CL        143.7226  139.9176  158.2429 Cl      1  UNL1       -0.0809
      8 C         139.7661  144.5057  160.7017 C.2     1  UNL1        0.2699
      9 O         139.7780  145.8065  159.9549 O.2     1  UNL1       -0.2681
     10 N         140.1248  143.2320  159.9954 N.am    1  UNL1       -0.2713
     11 C         140.1129  141.9312  160.7423 C.3     1  UNL1        0.1152
     12 C         140.4716  140.6575  160.0359 C.3     1  UNL1        0.1124
     13 N         140.8422  140.6845  158.5826 N.pl3   1  UNL1       -0.3034
     14 C         140.8541  141.9853  157.8358 C.3     1  UNL1        0.1124
     15 C         140.4954  143.2590  158.5421 C.3     1  UNL1        0.1152
     16 C         140.4365  144.7524  163.1997 C.ar    1  UNL1        0.1607
     17 C         140.0658  144.7254  164.6529 C.ar    1  UNL1        0.0402
     18 C         138.6542  144.4245  165.0614 C.ar    1  UNL1        0.0238
     19 C         137.6133  144.1507  164.0167 C.ar    1  UNL1        0.0992
     20 N         137.9839  144.1778  162.5635 N.ar    1  UNL1       -0.2362
     21 C         139.3955  144.4786  162.1550 C.ar    1  UNL1        0.1684
     22 C         142.9561  144.9607  163.7979 C.3     1  UNL1        0.2525
     23 O         141.8480  145.0533  162.7912 O.3     1  UNL1       -0.4698
     24 N         142.2770  135.5896  155.7572 N.am    1  UNL1       -0.2837
     25 C         143.0030  134.5027  156.4932 C.2     1  UNL1        0.2290
     26 O         143.3703  134.6895  157.9354 O.2     1  UNL1       -0.2745
     27 H         142.0360  135.4670  154.8106 H       1  UNL1        0.1549
     28 C         143.3617  133.2290  155.7868 C.3     1  UNL1        0.0879
     29 C         142.6445  133.7076  154.5594 C.3     1  UNL1        0.0135
     30 C         144.0790  132.7503  157.0142 C.3     1  UNL1        0.0135
     31 C         143.7204  131.9552  155.0804 C.ar    1  UNL1       -0.0146
     32 C         144.5837  130.9364  155.7634 C.ar    1  UNL1       -0.0038
     33 C         144.9424  129.6626  155.0571 C.ar    1  UNL1       -0.0003
     34 C         144.4378  129.4078  153.6677 C.ar    1  UNL1       -0.0000
     35 C         143.5745  130.4267  152.9846 C.ar    1  UNL1       -0.0003
     36 C         143.2158  131.7004  153.6910 C.ar    1  UNL1       -0.0038
@<TRIPOS>BOND
     1    22    23    1
     2    23    16    1
     3    16    17   ar
     4    17    18   ar
     5    18    19   ar
     6    19    20   ar
     7    20    21   ar
     8    21     8    1
     9     8     9    2
    10     8    10   am
    11    10    11    1
    12    11    12    1
    13    12    13    1
    14    13     1    1
    15     1     2   ar
    16     2     3   ar
    17     3     4   ar
    18     4    24    1
    19    24    25   am
    20    25    26    2
    21    25    28    1
    22    28    29    1
    23    28    30    1
    24    28    31    1
    25    31    32   ar
    26    32    33   ar
    27    33    34   ar
    28    34    35   ar
    29    35    36   ar
    30     4     5   ar
    31     5     6   ar
    32     6     7    1
    33    13    14    1
    34    14    15    1
    35    21    16   ar
    36    15    10    1
    37     6     1   ar
    38    36    31   ar
    39    24    27    1
@<TRIPOS>MOLECULE
*****
 36 39 0 0 0
SMALL
GASTEIGER

@<TRIPOS>ATOM
      1 C         141.2031  143.4360  157.4806 C.ar    1  UNL1        0.0587
      2 C         142.1211  144.6042  157.6874 C.ar    1  UNL1        0.0166
      3 C         141.8808  145.8870  156.9481 C.ar    1  UNL1        0.0160
      4 C         140.7223  146.0017  156.0021 C.ar    1  UNL1        0.0512
      5 C         139.8043  144.8336  155.7953 C.ar    1  UNL1        0.0273
      6 C         140.0447  143.5508  156.5346 C.ar    1  UNL1        0.0722
      7 CL        139.1266  142.3826  156.3279 Cl      1  UNL1       -0.0809
      8 C         142.1645  138.3047  160.4378 C.2     1  UNL1        0.2699
      9 O         143.0205  137.2356  159.8261 O.2     1  UNL1       -0.2681
     10 N         141.9241  139.5875  159.6985 N.am    1  UNL1       -0.2713
     11 C         141.0681  140.6566  160.3103 C.3     1  UNL1        0.1152
     12 C         140.8277  141.9395  159.5710 C.3     1  UNL1        0.1124
     13 N         141.4434  142.1532  158.2199 N.pl3   1  UNL1       -0.3034
     14 C         142.2994  141.0841  157.6082 C.3     1  UNL1        0.1124
     15 C         142.5398  139.8013  158.3475 C.3     1  UNL1        0.1152
     16 C         142.3905  138.2130  163.0244 C.ar    1  UNL1        0.1607
     17 C         141.7748  137.9993  164.3754 C.ar    1  UNL1        0.0402
     18 C         140.3174  137.6635  164.4908 C.ar    1  UNL1        0.0238
     19 C         139.4757  137.5415  163.2552 C.ar    1  UNL1        0.0992
     20 N         140.0914  137.7552  161.9042 N.ar    1  UNL1       -0.2362
     21 C         141.5488  138.0909  161.7888 C.ar    1  UNL1        0.1684
     22 C         144.4538  139.5801  163.8139 C.3     1  UNL1        0.2525
     23 O         143.8478  138.5487  162.9090 O.3     1  UNL1       -0.4698
     24 N         140.4820  147.2846  155.2628 N.am    1  UNL1       -0.2837
     25 C         139.4819  148.2741  155.7832 C.2     1  UNL1        0.2290
     26 O         138.7222  147.9807  157.0429 O.2     1  UNL1       -0.2745
     27 H         140.9806  147.4771  154.4360 H       1  UNL1        0.1549
     28 C         139.2415  149.5569  155.0439 C.3     1  UNL1        0.0879
     29 C         140.0531  149.0446  153.8912 C.3     1  UNL1        0.0135
     30 C         138.4299  150.0692  156.1967 C.3     1  UNL1        0.0135
     31 C         139.0012  150.8397  154.3047 C.ar    1  UNL1       -0.0146
     32 C         138.4639  152.0358  155.0331 C.ar    1  UNL1       -0.0038
     33 C         138.2235  153.3187  154.2938 C.ar    1  UNL1       -0.0003
     34 C         138.5204  153.4054  152.8261 C.ar    1  UNL1       -0.0000
     35 C         139.0578  152.2093  152.0976 C.ar    1  UNL1       -0.0003
     36 C         139.2982  150.9265  152.8369 C.ar    1  UNL1       -0.0038
@<TRIPOS>BOND
     1    22    23    1
     2    23    16    1
     3    16    17   ar
     4    17    18   ar
     5    18    19   ar
     6    19    20   ar
     7    20    21   ar
     8    21     8    1
     9     8     9    2
    10     8    10   am
    11    10    11    1
    12    11    12    1
    13    12    13    1
    14    13     1    1
    15     1     2   ar
    16     2     3   ar
    17     3     4   ar
    18     4    24    1
    19    24    25   am
    20    25    26    2
    21    25    28    1
    22    28    29    1
    23    28    30    1
    24    28    31    1
    25    31    32   ar
    26    32    33   ar
    27    33    34   ar
    28    34    35   ar
    29    35    36   ar
    30     4     5   ar
    31     5     6   ar
    32     6     7    1
    33    13    14    1
    34    14    15    1
    35    21    16   ar
    36    15    10    1
    37     6     1   ar
    38    36    31   ar
    39    24    27    1
@<TRIPOS>MOLECULE
*****
 36 39 0 0 0
SMALL
GASTEIGER

@<TRIPOS>ATOM
      1 C         143.9379  141.7617  160.3045 C.ar    1  UNL1        0.0587
      2 C         144.4752  140.8682  161.3829 C.ar    1  UNL1        0.0166
      3 C         143.9917  141.0221  162.7945 C.ar    1  UNL1        0.0160
      4 C         142.9708  142.0694  163.1276 C.ar    1  UNL1        0.0512
      5 C         142.4335  142.9628  162.0491 C.ar    1  UNL1        0.0273
      6 C         142.9170  142.8089  160.6376 C.ar    1  UNL1        0.0722
      7 CL        142.3797  143.7024  159.5591 Cl      1  UNL1       -0.0809
      8 C         145.8721  141.1461  154.6582 C.2     1  UNL1        0.2699
      9 O         145.2810  140.0883  153.7741 O.2     1  UNL1       -0.2681
     10 N         145.3885  141.3000  156.0698 N.am    1  UNL1       -0.2713
     11 C         145.9797  142.3578  156.9540 C.3     1  UNL1        0.1152
     12 C         145.4961  142.5117  158.3655 C.3     1  UNL1        0.1124
     13 N         144.4214  141.6078  158.8929 N.pl3   1  UNL1       -0.3034
     14 C         143.8303  140.5500  158.0087 C.3     1  UNL1        0.1124
     15 C         144.3139  140.3961  156.5972 C.3     1  UNL1        0.1152
     16 C         146.5991  143.4276  153.6501 C.ar    1  UNL1        0.1607
     17 C         147.6737  144.3314  153.1227 C.ar    1  UNL1        0.0402
     18 C         149.0962  143.8576  153.0762 C.ar    1  UNL1        0.0238
     19 C         149.4439  142.4800  153.5570 C.ar    1  UNL1        0.0992
     20 N         148.3693  141.5762  154.0843 N.ar    1  UNL1       -0.2362
     21 C         146.9468  142.0500  154.1309 C.ar    1  UNL1        0.1684
     22 C         144.7336  145.0323  152.8165 C.3     1  UNL1        0.2525
     23 O         145.1766  143.9014  153.6966 O.3     1  UNL1       -0.4698
     24 N         142.4872  142.2233  164.5391 N.am    1  UNL1       -0.2837
     25 C         141.3602  141.3711  165.0430 C.2     1  UNL1        0.2290
     26 O         140.7169  140.3651  164.1353 O.2     1  UNL1       -0.2745
     27 H         142.9095  142.8836  165.1349 H       1  UNL1        0.1549
     28 C         140.8767  141.5250  166.4545 C.3     1  UNL1        0.0879
     29 C         140.3728  142.9006  166.1320 C.3     1  UNL1        0.0135
     30 C         141.3805  140.1495  166.7771 C.3     1  UNL1        0.0135
     31 C         140.3931  141.6789  167.8661 C.ar    1  UNL1       -0.0146
     32 C         139.6873  140.5429  168.5451 C.ar    1  UNL1       -0.0038
     33 C         139.2037  140.6968  169.9567 C.ar    1  UNL1       -0.0003
     34 C         139.4260  141.9867  170.6892 C.ar    1  UNL1       -0.0000
     35 C         140.1319  143.1229  170.0101 C.ar    1  UNL1       -0.0003
     36 C         140.6154  142.9690  168.5986 C.ar    1  UNL1       -0.0038
@<TRIPOS>BOND
     1    22    23    1
     2    23    16    1
     3    16    17   ar
     4    17    18   ar
     5    18    19   ar
     6    19    20   ar
     7    20    21   ar
     8    21     8    1
     9     8     9    2
    10     8    10   am
    11    10    11    1
    12    11    12    1
    13    12    13    1
    14    13     1    1
    15     1     2   ar
    16     2     3   ar
    17     3     4   ar
    18     4    24    1
    19    24    25   am
    20    25    26    2
    21    25    28    1
    22    28    29    1
    23    28    30    1
    24    28    31    1
    25    31    32   ar
    26    32    33   ar
    27    33    34   ar
    28    34    35   ar
    29    35    36   ar
    30     4     5   ar
    31     5     6   ar
    32     6     7    1
    33    13    14    1
    34    14    15    1
    35    21    16   ar
    36    15    10    1
    37     6     1   ar
    38    36    31   ar
    39    24    27    1
@<TRIPOS>MOLECULE
*****
 36 39 0 0 0
SMALL
GASTEIGER

@<TRIPOS>ATOM
      1 C         140.1304  143.3844  161.8359 C.ar    1  UNL1        0.0587
      2 C         140.7063  142.7916  160.5841 C.ar    1  UNL1        0.0166
      3 C         140.8696  143.6408  159.3584 C.ar    1  UNL1        0.0160
      4 C         140.4569  145.0827  159.3845 C.ar    1  UNL1        0.0512
      5 C         139.8810  145.6754  160.6363 C.ar    1  UNL1        0.0273
      6 C         139.7177  144.8262  161.8620 C.ar    1  UNL1        0.0722
      7 CL        139.1418  145.4190  163.1138 Cl      1  UNL1       -0.0809
      8 C         139.4774  139.9878  166.7386 C.2     1  UNL1        0.2699
      9 O         138.4109  138.9340  166.7844 O.2     1  UNL1       -0.2681
     10 N         139.6407  140.8369  165.5129 N.am    1  UNL1       -0.2713
     11 C         140.7072  141.8907  165.4672 C.3     1  UNL1        0.1152
     12 C         140.8705  142.7399  164.2415 C.3     1  UNL1        0.1124
     13 N         139.9671  142.5352  163.0616 N.pl3   1  UNL1       -0.3034
     14 C         138.9007  141.4815  163.1074 C.3     1  UNL1        0.1124
     15 C         138.7374  140.6323  164.3330 C.3     1  UNL1        0.1152
     16 C         141.7742  139.6374  167.9015 C.ar    1  UNL1        0.1607
     17 C         142.6774  139.8421  169.0815 C.ar    1  UNL1        0.0402
     18 C         142.1872  140.6017  170.2784 C.ar    1  UNL1        0.0238
     19 C         140.7938  141.1567  170.2954 C.ar    1  UNL1        0.0992
     20 N         139.8906  140.9521  169.1155 N.ar    1  UNL1       -0.2362
     21 C         140.3807  140.1924  167.9186 C.ar    1  UNL1        0.1684
     22 C         143.3546  139.4501  165.8480 C.3     1  UNL1        0.2525
     23 O         142.2643  138.8778  166.7046 O.3     1  UNL1       -0.4698
     24 N         140.6201  145.9318  158.1589 N.am    1  UNL1       -0.2837
     25 C         139.9728  145.5204  156.8697 C.2     1  UNL1        0.2290
     26 O         139.1623  144.2599  156.8064 O.2     1  UNL1       -0.2745
     27 H         141.1521  146.7592  158.2005 H       1  UNL1        0.1549
     28 C         140.1360  146.3696  155.6441 C.3     1  UNL1        0.0879
     29 C         139.1691  147.3685  156.2074 C.3     1  UNL1        0.0135
     30 C         141.1029  145.3706  155.0808 C.3     1  UNL1        0.0135
     31 C         140.2992  147.2187  154.4184 C.ar    1  UNL1       -0.0146
     32 C         141.0406  146.6843  153.2290 C.ar    1  UNL1       -0.0038
     33 C         141.2038  147.5334  152.0033 C.ar    1  UNL1       -0.0003
     34 C         140.6257  148.9170  151.9670 C.ar    1  UNL1       -0.0000
     35 C         139.8843  149.4516  153.1565 C.ar    1  UNL1       -0.0003
     36 C         139.7211  148.6024  154.3822 C.ar    1  UNL1       -0.0038
@<TRIPOS>BOND
     1    22    23    1
     2    23    16    1
     3    16    17   ar
     4    17    18   ar
     5    18    19   ar
     6    19    20   ar
     7    20    21   ar
     8    21     8    1
     9     8     9    2
    10     8    10   am
    11    10    11    1
    12    11    12    1
    13    12    13    1
    14    13     1    1
    15     1     2   ar
    16     2     3   ar
    17     3     4   ar
    18     4    24    1
    19    24    25   am
    20    25    26    2
    21    25    28    1
    22    28    29    1
    23    28    30    1
    24    28    31    1
    25    31    32   ar
    26    32    33   ar
    27    33    34   ar
    28    34    35   ar
    29    35    36   ar
    30     4     5   ar
    31     5     6   ar
    32     6     7    1
    33    13    14    1
    34    14    15    1
    35    21    16   ar
    36    15    10    1
    37     6     1   ar
    38    36    31   ar
    39    24    27    1
@<TRIPOS>MOLECULE
*****
 36 39 0 0 0
SMALL
GASTEIGER

@<TRIPOS>ATOM
      1 C         142.7198  138.8276  163.1638 C.ar    1  UNL1        0.0587
      2 C         141.7015  137.9260  162.5311 C.ar    1  UNL1        0.0166
      3 C         141.7668  137.6362  161.0608 C.ar    1  UNL1        0.0160
      4 C         142.8504  138.2480  160.2232 C.ar    1  UNL1        0.0512
      5 C         143.8686  139.1496  160.8559 C.ar    1  UNL1        0.0273
      6 C         143.8033  139.4394  162.3262 C.ar    1  UNL1        0.0722
      7 CL        144.8216  140.3411  162.9589 Cl      1  UNL1       -0.0809
      8 C         142.4584  139.9869  169.0449 C.2     1  UNL1        0.2699
      9 O         143.2455  139.1507  170.0099 O.2     1  UNL1       -0.2681
     10 N         142.5237  139.6971  167.5746 N.am    1  UNL1       -0.2713
     11 C         141.7365  140.5333  166.6097 C.3     1  UNL1        0.1152
     12 C         141.8019  140.2435  165.1394 C.3     1  UNL1        0.1124
     13 N         142.6544  139.1174  164.6341 N.pl3   1  UNL1       -0.3034
     14 C         143.4416  138.2813  165.5990 C.3     1  UNL1        0.1124
     15 C         143.3762  138.5711  167.0693 C.3     1  UNL1        0.1152
     16 C         142.1528  142.5091  169.5884 C.ar    1  UNL1        0.1607
     17 C         141.3003  143.6350  170.0937 C.ar    1  UNL1        0.0402
     18 C         139.9008  143.3648  170.5608 C.ar    1  UNL1        0.0238
     19 C         139.3537  141.9687  170.5227 C.ar    1  UNL1        0.0992
     20 N         140.2063  140.8427  170.0174 N.ar    1  UNL1       -0.2362
     21 C         141.6058  141.1129  169.5502 C.ar    1  UNL1        0.1684
     22 C         144.6848  142.7778  170.1048 C.3     1  UNL1        0.2525
     23 O         143.5524  142.7793  169.1212 O.3     1  UNL1       -0.4698
     24 N         142.9158  137.9582  158.7529 N.am    1  UNL1       -0.2837
     25 C         141.8118  138.4189  157.8479 C.2     1  UNL1        0.2290
     26 O         140.6425  139.1694  158.4132 O.2     1  UNL1       -0.2745
     27 H         143.6832  137.4656  158.3819 H       1  UNL1        0.1549
     28 C         141.8771  138.1291  156.3776 C.3     1  UNL1        0.0879
     29 C         143.1745  138.8766  156.2879 C.3     1  UNL1        0.0135
     30 C         140.5797  137.3816  156.4673 C.3     1  UNL1        0.0135
     31 C         141.9424  137.8393  154.9073 C.ar    1  UNL1       -0.0146
     32 C         142.3392  138.9207  153.9466 C.ar    1  UNL1       -0.0038
     33 C         142.4045  138.6309  152.4764 C.ar    1  UNL1       -0.0003
     34 C         142.0731  137.2596  151.9668 C.ar    1  UNL1       -0.0000
     35 C         141.6764  136.1781  152.9275 C.ar    1  UNL1       -0.0003
     36 C         141.6110  136.4679  154.3978 C.ar    1  UNL1       -0.0038
@<TRIPOS>BOND
     1    22    23    1
     2    23    16    1
     3    16    17   ar
     4    17    18   ar
     5    18    19   ar
     6    19    20   ar
     7    20    21   ar
     8    21     8    1
     9     8     9    2
    10     8    10   am
    11    10    11    1
    12    11    12    1
    13    12    13    1
    14    13     1    1
    15     1     2   ar
    16     2     3   ar
    17     3     4   ar
    18     4    24    1
    19    24    25   am
    20    25    26    2
    21    25    28    1
    22    28    29    1
    23    28    30    1
    24    28    31    1
    25    31    32   ar
    26    32    33   ar
    27    33    34   ar
    28    34    35   ar
    29    35    36   ar
    30     4     5   ar
    31     5     6   ar
    32     6     7    1
    33    13    14    1
    34    14    15    1
    35    21    16   ar
    36    15    10    1
    37     6     1   ar
    38    36    31   ar
    39    24    27    1
@<TRIPOS>MOLECULE
*****
 36 39 0 0 0
SMALL
GASTEIGER

@<TRIPOS>ATOM
      1 C         141.8603  139.9793  159.8297 C.ar    1  UNL1        0.0587
      2 C         140.6260  140.7691  160.1502 C.ar    1  UNL1        0.0166
      3 C         140.3964  141.2684  161.5459 C.ar    1  UNL1        0.0160
      4 C         141.4012  140.9777  162.6212 C.ar    1  UNL1        0.0512
      5 C         142.6355  140.1880  162.3006 C.ar    1  UNL1        0.0273
      6 C         142.8650  139.6888  160.9049 C.ar    1  UNL1        0.0722
      7 CL        144.0994  138.8989  160.5844 Cl      1  UNL1       -0.0809
      8 C         142.7786  137.9825  154.2467 C.2     1  UNL1        0.2699
      9 O         143.6350  138.7700  153.2999 O.2     1  UNL1       -0.2681
     10 N         142.5491  138.4817  155.6425 N.am    1  UNL1       -0.2713
     11 C         141.6927  137.6941  156.5893 C.3     1  UNL1        0.1152
     12 C         141.4631  138.1933  157.9851 C.3     1  UNL1        0.1124
     13 N         142.0899  139.4801  158.4339 N.pl3   1  UNL1       -0.3034
     14 C         142.9462  140.2676  157.4871 C.3     1  UNL1        0.1124
     15 C         143.1758  139.7684  156.0914 C.3     1  UNL1        0.1152
     16 C         142.7169  135.3851  154.2595 C.ar    1  UNL1        0.1607
     17 C         142.0901  134.0985  153.8106 C.ar    1  UNL1        0.0402
     18 C         140.8982  134.1224  152.9001 C.ar    1  UNL1        0.0238
     19 C         140.3332  135.4329  152.4385 C.ar    1  UNL1        0.0992
     20 N         140.9600  136.7196  152.8874 N.ar    1  UNL1       -0.2362
     21 C         142.1518  136.6957  153.7978 C.ar    1  UNL1        0.1684
     22 C         143.8371  134.6347  156.4802 C.3     1  UNL1        0.2525
     23 O         143.9087  135.3612  155.1699 O.3     1  UNL1       -0.4698
     24 N         141.1716  141.4770  164.0169 N.am    1  UNL1       -0.2837
     25 C         140.6963  140.5338  165.0821 C.2     1  UNL1        0.2290
     26 O         140.4507  139.0914  164.7515 O.2     1  UNL1       -0.2745
     27 H         141.3329  142.4236  164.2339 H       1  UNL1        0.1549
     28 C         140.4668  141.0330  166.4778 C.3     1  UNL1        0.0879
     29 C         139.5071  139.9065  166.7229 C.3     1  UNL1        0.0135
     30 C         141.4264  142.1595  166.2328 C.3     1  UNL1        0.0135
     31 C         140.2372  141.5322  167.8736 C.ar    1  UNL1       -0.0146
     32 C         139.6430  140.6222  168.9074 C.ar    1  UNL1       -0.0038
     33 C         139.4135  141.1214  170.3031 C.ar    1  UNL1       -0.0003
     34 C         139.7780  142.5306  170.6650 C.ar    1  UNL1       -0.0000
     35 C         140.3722  143.4407  169.6312 C.ar    1  UNL1       -0.0003
     36 C         140.6018  142.9415  168.2355 C.ar    1  UNL1       -0.0038
@<TRIPOS>BOND
     1    22    23    1
     2    23    16    1
     3    16    17   ar
     4    17    18   ar
     5    18    19   ar
     6    19    20   ar
     7    20    21   ar
     8    21     8    1
     9     8     9    2
    10     8    10   am
    11    10    11    1
    12    11    12    1
    13    12    13    1
    14    13     1    1
    15     1     2   ar
    16     2     3   ar
    17     3     4   ar
    18     4    24    1
    19    24    25   am
    20    25    26    2
    21    25    28    1
    22    28    29    1
    23    28    30    1
    24    28    31    1
    25    31    32   ar
    26    32    33   ar
    27    33    34   ar
    28    34    35   ar
    29    35    36   ar
    30     4     5   ar
    31     5     6   ar
    32     6     7    1
    33    13    14    1
    34    14    15    1
    35    21    16   ar
    36    15    10    1
    37     6     1   ar
    38    36    31   ar
    39    24    27    1
@<TRIPOS>MOLECULE
*****
 36 39 0 0 0
SMALL
GASTEIGER

@<TRIPOS>ATOM
      1 C         143.3398  141.1443  160.4544 C.ar    1  UNL1        0.0587
      2 C         144.2227  140.5470  161.5098 C.ar    1  UNL1        0.0166
      3 C         143.7678  140.5164  162.9389 C.ar    1  UNL1        0.0160
      4 C         142.4301  141.0831  163.3125 C.ar    1  UNL1        0.0512
      5 C         141.5473  141.6803  162.2571 C.ar    1  UNL1        0.0273
      6 C         142.0022  141.7109  160.8280 C.ar    1  UNL1        0.0722
      7 CL        141.1193  142.3082  159.7726 Cl      1  UNL1       -0.0809
      8 C         145.1592  141.2667  154.7382 C.2     1  UNL1        0.2699
      9 O         144.9292  140.0783  153.8523 O.2     1  UNL1       -0.2681
     10 N         144.7043  141.2361  156.1672 N.am    1  UNL1       -0.2713
     11 C         144.9344  142.4245  157.0531 C.3     1  UNL1        0.1152
     12 C         144.4795  142.3939  158.4822 C.3     1  UNL1        0.1124
     13 N         143.7946  141.1749  159.0253 N.pl3   1  UNL1       -0.3034
     14 C         143.5647  139.9865  158.1395 C.3     1  UNL1        0.1124
     15 C         144.0195  140.0171  156.7104 C.3     1  UNL1        0.1152
     16 C         147.3358  142.6121  154.2884 C.ar    1  UNL1        0.1607
     17 C         148.0205  143.8312  153.7453 C.ar    1  UNL1        0.0402
     18 C         147.2136  144.9237  153.1088 C.ar    1  UNL1        0.0238
     19 C         145.7219  144.7973  153.0154 C.ar    1  UNL1        0.0992
     20 N         145.0371  143.5783  153.5586 N.ar    1  UNL1       -0.2362
     21 C         145.8440  142.4857  154.1950 C.ar    1  UNL1        0.1684
     22 C         149.6268  141.6749  155.0775 C.3     1  UNL1        0.2525
     23 O         148.1427  141.5196  154.9249 O.3     1  UNL1       -0.4698
     24 N         141.9753  141.0525  164.7415 N.am    1  UNL1       -0.2837
     25 C         142.4048  142.1335  165.6887 C.2     1  UNL1        0.2290
     26 O         143.2892  143.2450  165.2067 O.2     1  UNL1       -0.2745
     27 H         141.3948  140.3229  165.0579 H       1  UNL1        0.1549
     28 C         141.9500  142.1029  167.1177 C.3     1  UNL1        0.0879
     29 C         143.3540  142.3744  167.5704 C.3     1  UNL1        0.0135
     30 C         140.5460  141.8314  166.6650 C.3     1  UNL1        0.0135
     31 C         141.4952  142.0723  168.5467 C.ar    1  UNL1       -0.0146
     32 C         140.3880  142.9766  169.0009 C.ar    1  UNL1       -0.0038
     33 C         139.9331  142.9460  170.4300 C.ar    1  UNL1       -0.0003
     34 C         140.5855  142.0111  171.4048 C.ar    1  UNL1       -0.0000
     35 C         141.6927  141.1067  170.9507 C.ar    1  UNL1       -0.0003
     36 C         142.1476  141.1373  169.5216 C.ar    1  UNL1       -0.0038
@<TRIPOS>BOND
     1    22    23    1
     2    23    16    1
     3    16    17   ar
     4    17    18   ar
     5    18    19   ar
     6    19    20   ar
     7    20    21   ar
     8    21     8    1
     9     8     9    2
    10     8    10   am
    11    10    11    1
    12    11    12    1
    13    12    13    1
    14    13     1    1
    15     1     2   ar
    16     2     3   ar
    17     3     4   ar
    18     4    24    1
    19    24    25   am
    20    25    26    2
    21    25    28    1
    22    28    29    1
    23    28    30    1
    24    28    31    1
    25    31    32   ar
    26    32    33   ar
    27    33    34   ar
    28    34    35   ar
    29    35    36   ar
    30     4     5   ar
    31     5     6   ar
    32     6     7    1
    33    13    14    1
    34    14    15    1
    35    21    16   ar
    36    15    10    1
    37     6     1   ar
    38    36    31   ar
    39    24    27    1
@<TRIPOS>MOLECULE
*****
 36 39 0 0 0
SMALL
GASTEIGER

@<TRIPOS>ATOM
      1 C         139.8124  139.9188  160.0428 C.ar    1  UNL1        0.0587
      2 C         141.2039  140.4034  160.3240 C.ar    1  UNL1        0.0166
      3 C         141.6455  140.6361  161.7386 C.ar    1  UNL1        0.0160
      4 C         140.6956  140.3842  162.8719 C.ar    1  UNL1        0.0512
      5 C         139.3042  139.8997  162.5906 C.ar    1  UNL1        0.0273
      6 C         138.8626  139.6670  161.1761 C.ar    1  UNL1        0.0722
      7 CL        137.4711  139.1824  160.8949 Cl      1  UNL1       -0.0809
      8 C         138.0461  138.9879  154.3848 C.2     1  UNL1        0.2699
      9 O         138.4947  137.7586  153.6517 O.2     1  UNL1       -0.2681
     10 N         138.4877  139.2207  155.7993 N.am    1  UNL1       -0.2713
     11 C         138.0390  140.4500  156.5324 C.3     1  UNL1        0.1152
     12 C         138.4806  140.6828  157.9469 C.3     1  UNL1        0.1124
     13 N         139.3708  139.6861  158.6283 N.pl3   1  UNL1       -0.3034
     14 C         139.8194  138.4568  157.8952 C.3     1  UNL1        0.1124
     15 C         139.3779  138.2241  156.4807 C.3     1  UNL1        0.1152
     16 C         135.6901  140.0206  154.0199 C.ar    1  UNL1        0.1607
     17 C         134.8000  141.0172  153.3385 C.ar    1  UNL1        0.0402
     18 C         135.3756  141.9779  152.3407 C.ar    1  UNL1        0.0238
     19 C         136.8413  141.9419  152.0241 C.ar    1  UNL1        0.0992
     20 N         137.7315  140.9453  152.7055 N.ar    1  UNL1       -0.2362
     21 C         137.1559  139.9846  153.7034 C.ar    1  UNL1        0.1684
     22 C         133.9432  139.4672  155.8616 C.3     1  UNL1        0.2525
     23 O         135.1145  139.0599  155.0178 O.3     1  UNL1       -0.4698
     24 N         141.1372  140.6169  164.2864 N.am    1  UNL1       -0.2837
     25 C         140.8037  141.9080  164.9734 C.2     1  UNL1        0.2290
     26 O         140.0287  142.9663  164.2459 O.2     1  UNL1       -0.2745
     27 H         141.6459  139.9223  164.7639 H       1  UNL1        0.1549
     28 C         141.2453  142.1408  166.3879 C.3     1  UNL1        0.0879
     29 C         142.3051  141.0912  166.2297 C.3     1  UNL1        0.0135
     30 C         140.1854  143.1904  166.5461 C.3     1  UNL1        0.0135
     31 C         141.6869  142.3735  167.8024 C.ar    1  UNL1       -0.0146
     32 C         140.6926  142.8133  168.8358 C.ar    1  UNL1       -0.0038
     33 C         141.1341  143.0460  170.2503 C.ar    1  UNL1       -0.0003
     34 C         142.5700  142.8389  170.6315 C.ar    1  UNL1       -0.0000
     35 C         143.5644  142.3991  169.5981 C.ar    1  UNL1       -0.0003
     36 C         143.1228  142.1664  168.1836 C.ar    1  UNL1       -0.0038
@<TRIPOS>BOND
     1    22    23    1
     2    23    16    1
     3    16    17   ar
     4    17    18   ar
     5    18    19   ar
     6    19    20   ar
     7    20    21   ar
     8    21     8    1
     9     8     9    2
    10     8    10   am
    11    10    11    1
    12    11    12    1
    13    12    13    1
    14    13     1    1
    15     1     2   ar
    16     2     3   ar
    17     3     4   ar
    18     4    24    1
    19    24    25   am
    20    25    26    2
    21    25    28    1
    22    28    29    1
    23    28    30    1
    24    28    31    1
    25    31    32   ar
    26    32    33   ar
    27    33    34   ar
    28    34    35   ar
    29    35    36   ar
    30     4     5   ar
    31     5     6   ar
    32     6     7    1
    33    13    14    1
    34    14    15    1
    35    21    16   ar
    36    15    10    1
    37     6     1   ar
    38    36    31   ar
    39    24    27    1
@<TRIPOS>MOLECULE
*****
 36 39 0 0 0
SMALL
GASTEIGER

@<TRIPOS>ATOM
      1 C         138.6194  140.1058  163.1300 C.ar    1  UNL1        0.0587
      2 C         138.0482  141.3035  162.4305 C.ar    1  UNL1        0.0166
      3 C         137.7173  141.2316  160.9692 C.ar    1  UNL1        0.0160
      4 C         137.9575  139.9619  160.2075 C.ar    1  UNL1        0.0512
      5 C         138.5287  138.7642  160.9070 C.ar    1  UNL1        0.0273
      6 C         138.8596  138.8362  162.3682 C.ar    1  UNL1        0.0722
      7 CL        139.4308  137.6384  163.0677 Cl      1  UNL1       -0.0809
      8 C         139.9430  140.3935  168.9751 C.2     1  UNL1        0.2699
      9 O         139.1422  139.6010  169.9653 O.2     1  UNL1       -0.2681
     10 N         139.6121  140.3216  167.5138 N.am    1  UNL1       -0.2713
     11 C         140.4129  141.1142  166.5236 C.3     1  UNL1        0.1152
     12 C         140.0820  141.0422  165.0623 C.3     1  UNL1        0.1124
     13 N         138.9503  140.1777  164.5913 N.pl3   1  UNL1       -0.3034
     14 C         138.1495  139.3852  165.5815 C.3     1  UNL1        0.1124
     15 C         138.4804  139.4571  167.0428 C.3     1  UNL1        0.1152
     16 C         142.4723  140.7142  169.4747 C.ar    1  UNL1        0.1607
     17 C         143.6040  141.5788  169.9457 C.ar    1  UNL1        0.0402
     18 C         143.3380  142.9871  170.3882 C.ar    1  UNL1        0.0238
     19 C         141.9404  143.5309  170.3597 C.ar    1  UNL1        0.0992
     20 N         140.8088  142.6664  169.8887 N.ar    1  UNL1       -0.2362
     21 C         141.0747  141.2581  169.4462 C.ar    1  UNL1        0.1684
     22 C         143.0371  139.0163  167.5911 C.3     1  UNL1        0.2525
     23 O         142.7383  139.3059  169.0322 O.3     1  UNL1       -0.4698
     24 N         137.6266  139.8899  158.7462 N.am    1  UNL1       -0.2837
     25 C         138.1183  140.9561  157.8125 C.2     1  UNL1        0.2290
     26 O         138.9408  142.0941  158.3401 O.2     1  UNL1       -0.2745
     27 H         137.0868  139.1430  158.3999 H       1  UNL1        0.1549
     28 C         137.7874  140.8841  156.3512 C.3     1  UNL1        0.0879
     29 C         136.9422  142.1165  156.4819 C.3     1  UNL1        0.0135
     30 C         138.6326  139.6518  156.2205 C.3     1  UNL1        0.0135
     31 C         137.4565  140.8122  154.8899 C.ar    1  UNL1       -0.0146
     32 C         138.1211  141.7472  153.9235 C.ar    1  UNL1       -0.0038
     33 C         137.7902  141.6753  152.4623 C.ar    1  UNL1       -0.0003
     34 C         136.7947  140.6683  151.9674 C.ar    1  UNL1       -0.0000
     35 C         136.1300  139.7333  152.9338 C.ar    1  UNL1       -0.0003
     36 C         136.4609  139.8052  154.3951 C.ar    1  UNL1       -0.0038
@<TRIPOS>BOND
     1    22    23    1
     2    23    16    1
     3    16    17   ar
     4    17    18   ar
     5    18    19   ar
     6    19    20   ar
     7    20    21   ar
     8    21     8    1
     9     8     9    2
    10     8    10   am
    11    10    11    1
    12    11    12    1
    13    12    13    1
    14    13     1    1
    15     1     2   ar
    16     2     3   ar
    17     3     4   ar
    18     4    24    1
    19    24    25   am
    20    25    26    2
    21    25    28    1
    22    28    29    1
    23    28    30    1
    24    28    31    1
    25    31    32   ar
    26    32    33   ar
    27    33    34   ar
    28    34    35   ar
    29    35    36   ar
    30     4     5   ar
    31     5     6   ar
    32     6     7    1
    33    13    14    1
    34    14    15    1
    35    21    16   ar
    36    15    10    1
    37     6     1   ar
    38    36    31   ar
    39    24    27    1
