@<TRIPOS>MOLECULE
*****
 29 32 0 0 0
SMALL
GASTEIGER

@<TRIPOS>ATOM
      1 C         138.5695  141.7019  161.3270 C.3     1  UNL1        0.0501
      2 C         139.4045  142.3981  162.3605 C.ar    1  UNL1        0.0404
      3 C         140.0195  143.7596  162.2261 C.ar    1  UNL1        0.0074
      4 C         140.7662  144.0579  163.4924 C.ar    1  UNL1        0.0158
      5 C         140.6127  142.8808  164.4094 C.ar    1  UNL1        0.0647
      6 N         139.7711  141.8549  163.7097 N.ar    1  UNL1       -0.2957
      7 C         139.3671  140.5203  164.2624 C.ar    1  UNL1        0.1476
      8 C         138.4084  140.4442  165.4136 C.ar    1  UNL1        0.0397
      9 C         138.0043  139.1096  165.9663 C.ar    1  UNL1        0.0343
     10 C         138.5590  137.8509  165.3678 C.ar    1  UNL1        0.1593
     11 F         138.1550  136.5162  165.9205 F       1  UNL1       -0.2025
     12 C         139.5178  137.9270  164.2167 C.ar    1  UNL1        0.1300
     13 N         139.9218  139.2616  163.6640 N.ar    1  UNL1       -0.2241
     14 C         141.1980  142.7521  165.7844 C.ar    1  UNL1        0.0161
     15 C         140.3252  142.9321  166.9909 C.ar    1  UNL1        0.0011
     16 C         140.9105  142.8034  168.3660 C.ar    1  UNL1       -0.0042
     17 C         142.3686  142.4947  168.5346 C.ar    1  UNL1       -0.0225
     18 C         143.2415  142.3147  167.3281 C.ar    1  UNL1       -0.0042
     19 C         142.6562  142.4434  165.9530 C.ar    1  UNL1        0.0011
     20 C         142.9539  142.3660  169.9096 C.3     1  UNL1        0.0224
     21 C         142.0766  141.9875  171.0658 C.3     1  UNL1        0.0047
     22 C         144.4167  142.6159  170.1285 C.3     1  UNL1        0.0047
     23 C         139.9074  144.6639  161.0347 C.3     1  UNL1        0.1004
     24 N         140.9005  144.5567  159.9156 N.3     1  UNL1       -0.2646
     25 C         140.8269  145.5032  158.7543 C.3     1  UNL1        0.1049
     26 C         141.8200  145.3959  157.6353 C.3     1  UNL1        0.1595
     27 O         142.8867  144.3421  157.6775 O.3     1  UNL1       -0.3508
     28 C         142.9602  143.3956  158.8389 C.3     1  UNL1        0.1595
     29 C         141.9672  143.5029  159.9579 C.3     1  UNL1        0.1049
@<TRIPOS>BOND
     1     1     2    1
     2     2     3   ar
     3     3    23    1
     4    23    24    1
     5    24    25    1
     6    25    26    1
     7    26    27    1
     8    27    28    1
     9    28    29    1
    10     3     4   ar
    11     4     5   ar
    12     5    14    1
    13    14    15   ar
    14    15    16   ar
    15    16    17   ar
    16    17    20    1
    17    20    21    1
    18    20    22    1
    19    17    18   ar
    20    18    19   ar
    21     5     6   ar
    22     6     7    1
    23     7     8   ar
    24     8     9   ar
    25     9    10   ar
    26    10    11    1
    27    10    12   ar
    28    12    13   ar
    29     6     2   ar
    30    13     7   ar
    31    29    24    1
    32    19    14   ar
@<TRIPOS>MOLECULE
*****
 29 32 0 0 0
SMALL
GASTEIGER

@<TRIPOS>ATOM
      1 C         141.5589  140.4703  160.6023 C.3     1  UNL1        0.0501
      2 C         141.9534  141.3329  161.7643 C.ar    1  UNL1        0.0404
      3 C         142.7988  142.5701  161.6970 C.ar    1  UNL1        0.0074
      4 C         142.9396  143.1116  163.0888 C.ar    1  UNL1        0.0158
      5 C         142.1812  142.2091  164.0162 C.ar    1  UNL1        0.0647
      6 N         141.5717  141.1098  163.1976 N.ar    1  UNL1       -0.2957
      7 C         140.7285  139.9848  163.7206 C.ar    1  UNL1        0.1476
      8 C         141.3794  138.7296  164.2214 C.ar    1  UNL1        0.0397
      9 C         140.5363  137.6046  164.7444 C.ar    1  UNL1        0.0343
     10 C         139.0421  137.7348  164.7665 C.ar    1  UNL1        0.1593
     11 F         138.1989  136.6098  165.2895 F       1  UNL1       -0.2025
     12 C         138.3911  138.9900  164.2657 C.ar    1  UNL1        0.1300
     13 N         139.2343  140.1150  163.7427 N.ar    1  UNL1       -0.2241
     14 C         142.0545  142.3764  165.5015 C.ar    1  UNL1        0.0161
     15 C         143.2580  142.2075  166.3806 C.ar    1  UNL1        0.0011
     16 C         143.1313  142.3748  167.8658 C.ar    1  UNL1       -0.0042
     17 C         141.8011  142.7111  168.4719 C.ar    1  UNL1       -0.0225
     18 C         140.5976  142.8800  167.5928 C.ar    1  UNL1       -0.0042
     19 C         140.7242  142.7127  166.1076 C.ar    1  UNL1        0.0011
     20 C         141.6745  142.8784  169.9571 C.3     1  UNL1        0.0224
     21 C         140.3383  142.7159  170.6189 C.3     1  UNL1        0.0047
     22 C         142.8841  143.2083  170.7806 C.3     1  UNL1        0.0047
     23 C         143.3982  143.1620  160.4559 C.3     1  UNL1        0.1004
     24 N         142.5368  143.9360  159.5025 N.3     1  UNL1       -0.2646
     25 C         142.8740  143.9649  158.0412 C.3     1  UNL1        0.1049
     26 C         142.0126  144.7389  157.0879 C.3     1  UNL1        0.1595
     27 O         140.8139  145.4840  157.5959 O.3     1  UNL1       -0.3508
     28 C         140.4766  145.4550  159.0571 C.3     1  UNL1        0.1595
     29 C         141.3381  144.6810  160.0104 C.3     1  UNL1        0.1049
@<TRIPOS>BOND
     1     1     2    1
     2     2     3   ar
     3     3    23    1
     4    23    24    1
     5    24    25    1
     6    25    26    1
     7    26    27    1
     8    27    28    1
     9    28    29    1
    10     3     4   ar
    11     4     5   ar
    12     5    14    1
    13    14    15   ar
    14    15    16   ar
    15    16    17   ar
    16    17    20    1
    17    20    21    1
    18    20    22    1
    19    17    18   ar
    20    18    19   ar
    21     5     6   ar
    22     6     7    1
    23     7     8   ar
    24     8     9   ar
    25     9    10   ar
    26    10    11    1
    27    10    12   ar
    28    12    13   ar
    29     6     2   ar
    30    13     7   ar
    31    29    24    1
    32    19    14   ar
@<TRIPOS>MOLECULE
*****
 29 32 0 0 0
SMALL
GASTEIGER

@<TRIPOS>ATOM
      1 C         143.4352  139.8942  158.4819 C.3     1  UNL1        0.0501
      2 C         142.2557  139.4214  159.2788 C.ar    1  UNL1        0.0404
      3 C         141.0535  138.7077  158.7355 C.ar    1  UNL1        0.0074
      4 C         140.1261  138.4244  159.8799 C.ar    1  UNL1        0.0158
      5 C         140.7552  138.9629  161.1306 C.ar    1  UNL1        0.0647
      6 N         142.0714  139.5791  160.7590 N.ar    1  UNL1       -0.2957
      7 C         143.0343  140.2375  161.7022 C.ar    1  UNL1        0.1476
      8 C         143.8331  139.4049  162.6607 C.ar    1  UNL1        0.0397
      9 C         144.7960  140.0632  163.6038 C.ar    1  UNL1        0.0343
     10 C         144.9599  141.5542  163.5885 C.ar    1  UNL1        0.1593
     11 F         145.9228  142.2126  164.5317 F       1  UNL1       -0.2025
     12 C         144.1610  142.3868  162.6301 C.ar    1  UNL1        0.1300
     13 N         143.1982  141.7284  161.6869 N.ar    1  UNL1       -0.2241
     14 C         140.1708  138.8970  162.5105 C.ar    1  UNL1        0.0161
     15 C         139.2699  139.9933  162.9966 C.ar    1  UNL1        0.0011
     16 C         138.6855  139.9273  164.3765 C.ar    1  UNL1       -0.0042
     17 C         139.0019  138.7650  165.2702 C.ar    1  UNL1       -0.0225
     18 C         139.9028  137.6686  164.7841 C.ar    1  UNL1       -0.0042
     19 C         140.4872  137.7346  163.4042 C.ar    1  UNL1        0.0011
     20 C         138.4175  138.6990  166.6501 C.3     1  UNL1        0.0224
     21 C         138.8722  139.6643  167.7041 C.3     1  UNL1        0.0047
     22 C         137.3782  137.6675  166.9759 C.3     1  UNL1        0.0047
     23 C         140.8196  138.3416  157.2998 C.3     1  UNL1        0.1004
     24 N         141.3788  137.0623  156.7513 N.3     1  UNL1       -0.2646
     25 C         140.6526  136.3335  155.6598 C.3     1  UNL1        0.1049
     26 C         141.2118  135.0542  155.1113 C.3     1  UNL1        0.1595
     27 O         142.4971  134.5037  155.6545 O.3     1  UNL1       -0.3508
     28 C         143.2232  135.2325  156.7460 C.3     1  UNL1        0.1595
     29 C         142.6641  136.5118  157.2944 C.3     1  UNL1        0.1049
@<TRIPOS>BOND
     1     1     2    1
     2     2     3   ar
     3     3    23    1
     4    23    24    1
     5    24    25    1
     6    25    26    1
     7    26    27    1
     8    27    28    1
     9    28    29    1
    10     3     4   ar
    11     4     5   ar
    12     5    14    1
    13    14    15   ar
    14    15    16   ar
    15    16    17   ar
    16    17    20    1
    17    20    21    1
    18    20    22    1
    19    17    18   ar
    20    18    19   ar
    21     5     6   ar
    22     6     7    1
    23     7     8   ar
    24     8     9   ar
    25     9    10   ar
    26    10    11    1
    27    10    12   ar
    28    12    13   ar
    29     6     2   ar
    30    13     7   ar
    31    29    24    1
    32    19    14   ar
@<TRIPOS>MOLECULE
*****
 29 32 0 0 0
SMALL
GASTEIGER

@<TRIPOS>ATOM
      1 C         143.9502  140.6547  160.8462 C.3     1  UNL1        0.0501
      2 C         143.2053  139.9788  161.9590 C.ar    1  UNL1        0.0404
      3 C         142.6471  138.5869  161.9285 C.ar    1  UNL1        0.0074
      4 C         141.9846  138.3241  163.2484 C.ar    1  UNL1        0.0158
      5 C         142.1333  139.5536  164.0946 C.ar    1  UNL1        0.0647
      6 N         142.8877  140.5763  163.2977 N.ar    1  UNL1       -0.2957
      7 C         143.2593  141.9545  163.7586 C.ar    1  UNL1        0.1476
      8 C         144.2911  142.1335  164.8326 C.ar    1  UNL1        0.0397
      9 C         144.6628  143.5116  165.2936 C.ar    1  UNL1        0.0343
     10 C         144.0026  144.7110  164.6805 C.ar    1  UNL1        0.1593
     11 F         144.3742  146.0892  165.1414 F       1  UNL1       -0.2025
     12 C         142.9708  144.5321  163.6066 C.ar    1  UNL1        0.1300
     13 N         142.5992  143.1538  163.1456 N.ar    1  UNL1       -0.2241
     14 C         141.6180  139.7296  165.4923 C.ar    1  UNL1        0.0161
     15 C         142.5396  139.5413  166.6606 C.ar    1  UNL1        0.0011
     16 C         142.0244  139.7173  168.0583 C.ar    1  UNL1       -0.0042
     17 C         140.5876  140.0815  168.2876 C.ar    1  UNL1       -0.0225
     18 C         139.6659  140.2698  167.1193 C.ar    1  UNL1       -0.0042
     19 C         140.1811  140.0939  165.7216 C.ar    1  UNL1        0.0011
     20 C         140.0723  140.2575  169.6853 C.3     1  UNL1        0.0224
     21 C         138.5968  140.2156  169.9515 C.3     1  UNL1        0.0047
     22 C         141.0327  140.4754  170.8168 C.3     1  UNL1        0.0047
     23 C         142.7359  137.6264  160.7798 C.3     1  UNL1        0.1004
     24 N         142.0119  137.9197  159.4992 N.3     1  UNL1       -0.2646
     25 C         140.6646  138.5781  159.5332 C.3     1  UNL1        0.1049
     26 C         139.9407  138.8714  158.2526 C.3     1  UNL1        0.1595
     27 O         140.5640  138.5062  156.9381 O.3     1  UNL1       -0.3508
     28 C         141.9113  137.8477  156.9041 C.3     1  UNL1        0.1595
     29 C         142.6352  137.5544  158.1846 C.3     1  UNL1        0.1049
@<TRIPOS>BOND
     1     1     2    1
     2     2     3   ar
     3     3    23    1
     4    23    24    1
     5    24    25    1
     6    25    26    1
     7    26    27    1
     8    27    28    1
     9    28    29    1
    10     3     4   ar
    11     4     5   ar
    12     5    14    1
    13    14    15   ar
    14    15    16   ar
    15    16    17   ar
    16    17    20    1
    17    20    21    1
    18    20    22    1
    19    17    18   ar
    20    18    19   ar
    21     5     6   ar
    22     6     7    1
    23     7     8   ar
    24     8     9   ar
    25     9    10   ar
    26    10    11    1
    27    10    12   ar
    28    12    13   ar
    29     6     2   ar
    30    13     7   ar
    31    29    24    1
    32    19    14   ar
@<TRIPOS>MOLECULE
*****
 29 32 0 0 0
SMALL
GASTEIGER

@<TRIPOS>ATOM
      1 C         140.8189  139.9025  167.0501 C.3     1  UNL1        0.0501
      2 C         141.3520  140.9964  166.1732 C.ar    1  UNL1        0.0404
      3 C         142.3515  142.0403  166.5748 C.ar    1  UNL1        0.0074
      4 C         142.5965  142.9275  165.3904 C.ar    1  UNL1        0.0158
      5 C         141.7485  142.4320  164.2567 C.ar    1  UNL1        0.0647
      6 N         140.9793  141.2385  164.7405 N.ar    1  UNL1       -0.2957
      7 C         140.0080  140.4291  163.9333 C.ar    1  UNL1        0.1476
      8 C         138.7043  141.0332  163.5027 C.ar    1  UNL1        0.0397
      9 C         137.7329  140.2239  162.6955 C.ar    1  UNL1        0.0343
     10 C         138.0653  138.8104  162.3190 C.ar    1  UNL1        0.1593
     11 F         137.0940  138.0010  161.5118 F       1  UNL1       -0.2025
     12 C         139.3690  138.2063  162.7497 C.ar    1  UNL1        0.1300
     13 N         140.3403  139.0157  163.5568 N.ar    1  UNL1       -0.2241
     14 C         141.6813  143.0256  162.8808 C.ar    1  UNL1        0.0161
     15 C         140.8347  144.2376  162.6274 C.ar    1  UNL1        0.0011
     16 C         140.7675  144.8313  161.2516 C.ar    1  UNL1       -0.0042
     17 C         141.5470  144.2130  160.1291 C.ar    1  UNL1       -0.0225
     18 C         142.3937  143.0010  160.3824 C.ar    1  UNL1       -0.0042
     19 C         142.4608  142.4073  161.7583 C.ar    1  UNL1        0.0011
     20 C         141.4799  144.8066  158.7532 C.3     1  UNL1        0.0224
     21 C         142.5535  144.5011  157.7513 C.3     1  UNL1        0.0047
     22 C         140.3390  145.7059  158.3793 C.3     1  UNL1        0.0047
     23 C         142.9933  142.1736  167.9240 C.3     1  UNL1        0.1004
     24 N         142.1465  142.1587  169.1621 N.3     1  UNL1       -0.2646
     25 C         140.9403  143.0453  169.2565 C.3     1  UNL1        0.1049
     26 C         140.0936  143.0303  170.4945 C.3     1  UNL1        0.1595
     27 O         140.4532  142.1288  171.6382 O.3     1  UNL1       -0.3508
     28 C         141.6594  141.2423  171.5439 C.3     1  UNL1        0.1595
     29 C         142.5061  141.2572  170.3058 C.3     1  UNL1        0.1049
@<TRIPOS>BOND
     1     1     2    1
     2     2     3   ar
     3     3    23    1
     4    23    24    1
     5    24    25    1
     6    25    26    1
     7    26    27    1
     8    27    28    1
     9    28    29    1
    10     3     4   ar
    11     4     5   ar
    12     5    14    1
    13    14    15   ar
    14    15    16   ar
    15    16    17   ar
    16    17    20    1
    17    20    21    1
    18    20    22    1
    19    17    18   ar
    20    18    19   ar
    21     5     6   ar
    22     6     7    1
    23     7     8   ar
    24     8     9   ar
    25     9    10   ar
    26    10    11    1
    27    10    12   ar
    28    12    13   ar
    29     6     2   ar
    30    13     7   ar
    31    29    24    1
    32    19    14   ar
@<TRIPOS>MOLECULE
*****
 29 32 0 0 0
SMALL
GASTEIGER

@<TRIPOS>ATOM
      1 C         140.4290  139.8842  160.4811 C.3     1  UNL1        0.0501
      2 C         141.2988  139.6377  161.6780 C.ar    1  UNL1        0.0404
      3 C         142.4619  138.6928  161.7432 C.ar    1  UNL1        0.0074
      4 C         143.0401  138.7640  163.1255 C.ar    1  UNL1        0.0158
      5 C         142.2343  139.7528  163.9146 C.ar    1  UNL1        0.0647
      6 N         141.1581  140.2929  163.0200 N.ar    1  UNL1       -0.2957
      7 C         140.1229  141.3095  163.4006 C.ar    1  UNL1        0.1476
      8 C         138.9609  140.9108  164.2613 C.ar    1  UNL1        0.0397
      9 C         137.9257  141.9274  164.6420 C.ar    1  UNL1        0.0343
     10 C         138.0526  143.3429  164.1619 C.ar    1  UNL1        0.1593
     11 F         137.0175  144.3596  164.5425 F       1  UNL1       -0.2025
     12 C         139.2146  143.7416  163.3012 C.ar    1  UNL1        0.1300
     13 N         140.2498  142.7249  162.9206 N.ar    1  UNL1       -0.2241
     14 C         142.4643  140.1347  165.3468 C.ar    1  UNL1        0.0161
     15 C         142.7291  141.5662  165.7081 C.ar    1  UNL1        0.0011
     16 C         142.9591  141.9480  167.1404 C.ar    1  UNL1       -0.0042
     17 C         142.9242  140.8984  168.2113 C.ar    1  UNL1       -0.0225
     18 C         142.6594  139.4669  167.8500 C.ar    1  UNL1       -0.0042
     19 C         142.4294  139.0850  166.4178 C.ar    1  UNL1        0.0011
     20 C         143.1542  141.2802  169.6435 C.3     1  UNL1        0.0224
     21 C         142.4979  140.4987  170.7427 C.3     1  UNL1        0.0047
     22 C         144.0405  142.4437  169.9765 C.3     1  UNL1        0.0047
     23 C         142.9595  137.8285  160.6228 C.3     1  UNL1        0.1004
     24 N         143.1889  138.4206  159.2638 N.3     1  UNL1       -0.2646
     25 C         143.8504  139.7603  159.1313 C.3     1  UNL1        0.1049
     26 C         144.0798  140.3523  157.7724 C.3     1  UNL1        0.1595
     27 O         143.6478  139.6047  156.5459 O.3     1  UNL1       -0.3508
     28 C         142.9863  138.2650  156.6783 C.3     1  UNL1        0.1595
     29 C         142.7568  137.6729  158.0373 C.3     1  UNL1        0.1049
@<TRIPOS>BOND
     1     1     2    1
     2     2     3   ar
     3     3    23    1
     4    23    24    1
     5    24    25    1
     6    25    26    1
     7    26    27    1
     8    27    28    1
     9    28    29    1
    10     3     4   ar
    11     4     5   ar
    12     5    14    1
    13    14    15   ar
    14    15    16   ar
    15    16    17   ar
    16    17    20    1
    17    20    21    1
    18    20    22    1
    19    17    18   ar
    20    18    19   ar
    21     5     6   ar
    22     6     7    1
    23     7     8   ar
    24     8     9   ar
    25     9    10   ar
    26    10    11    1
    27    10    12   ar
    28    12    13   ar
    29     6     2   ar
    30    13     7   ar
    31    29    24    1
    32    19    14   ar
@<TRIPOS>MOLECULE
*****
 29 32 0 0 0
SMALL
GASTEIGER

@<TRIPOS>ATOM
      1 C         140.8327  139.8958  167.0670 C.3     1  UNL1        0.0501
      2 C         141.3619  140.9877  166.1850 C.ar    1  UNL1        0.0404
      3 C         142.3520  142.0414  166.5840 C.ar    1  UNL1        0.0074
      4 C         142.5959  142.9224  165.3947 C.ar    1  UNL1        0.0158
      5 C         141.7565  142.4132  164.2607 C.ar    1  UNL1        0.0647
      6 N         140.9938  141.2174  164.7492 N.ar    1  UNL1       -0.2957
      7 C         140.0320  140.3956  163.9432 C.ar    1  UNL1        0.1476
      8 C         140.3805  138.9854  163.5692 C.ar    1  UNL1        0.0397
      9 C         139.4187  138.1636  162.7633 C.ar    1  UNL1        0.0343
     10 C         138.1082  138.7521  162.3312 C.ar    1  UNL1        0.1593
     11 F         137.1464  137.9303  161.5252 F       1  UNL1       -0.2025
     12 C         137.7597  140.1623  162.7052 C.ar    1  UNL1        0.1300
     13 N         138.7216  140.9841  163.5112 N.ar    1  UNL1       -0.2241
     14 C         141.6912  142.9971  162.8806 C.ar    1  UNL1        0.0161
     15 C         142.6927  142.5839  161.8433 C.ar    1  UNL1        0.0011
     16 C         142.6274  143.1679  160.4631 C.ar    1  UNL1       -0.0042
     17 C         141.5606  144.1650  160.1204 C.ar    1  UNL1       -0.0225
     18 C         140.5590  144.5782  161.1577 C.ar    1  UNL1       -0.0042
     19 C         140.6243  143.9943  162.5378 C.ar    1  UNL1        0.0011
     20 C         141.4953  144.7489  158.7403 C.3     1  UNL1        0.0224
     21 C         140.3523  145.6412  158.3567 C.3     1  UNL1        0.0047
     22 C         142.5731  144.4405  157.7436 C.3     1  UNL1        0.0047
     23 C         142.9868  142.1884  167.9351 C.3     1  UNL1        0.1004
     24 N         142.1350  142.1718  169.1698 N.3     1  UNL1       -0.2646
     25 C         140.9251  143.0539  169.2582 C.3     1  UNL1        0.1049
     26 C         140.0734  143.0372  170.4928 C.3     1  UNL1        0.1595
     27 O         140.4317  142.1384  171.6391 O.3     1  UNL1       -0.3508
     28 C         141.6417  141.2563  171.5507 C.3     1  UNL1        0.1595
     29 C         142.4933  141.2730  170.3160 C.3     1  UNL1        0.1049
@<TRIPOS>BOND
     1     1     2    1
     2     2     3   ar
     3     3    23    1
     4    23    24    1
     5    24    25    1
     6    25    26    1
     7    26    27    1
     8    27    28    1
     9    28    29    1
    10     3     4   ar
    11     4     5   ar
    12     5    14    1
    13    14    15   ar
    14    15    16   ar
    15    16    17   ar
    16    17    20    1
    17    20    21    1
    18    20    22    1
    19    17    18   ar
    20    18    19   ar
    21     5     6   ar
    22     6     7    1
    23     7     8   ar
    24     8     9   ar
    25     9    10   ar
    26    10    11    1
    27    10    12   ar
    28    12    13   ar
    29     6     2   ar
    30    13     7   ar
    31    29    24    1
    32    19    14   ar
@<TRIPOS>MOLECULE
*****
 29 32 0 0 0
SMALL
GASTEIGER

@<TRIPOS>ATOM
      1 C         141.5097  142.8476  160.4884 C.3     1  UNL1        0.0501
      2 C         142.2182  142.1308  161.5993 C.ar    1  UNL1        0.0404
      3 C         143.4838  141.3362  161.4700 C.ar    1  UNL1        0.0074
      4 C         143.8332  140.7971  162.8255 C.ar    1  UNL1        0.0158
      5 C         142.7836  141.2585  163.7926 C.ar    1  UNL1        0.0647
      6 N         141.7854  142.0829  163.0348 N.ar    1  UNL1       -0.2957
      7 C         140.5682  142.7433  163.6112 C.ar    1  UNL1        0.1476
      8 C         140.6133  144.1916  163.9989 C.ar    1  UNL1        0.0397
      9 C         139.3961  144.8520  164.5754 C.ar    1  UNL1        0.0343
     10 C         138.1337  144.0640  164.7641 C.ar    1  UNL1        0.1593
     11 F         136.9165  144.7244  165.3406 F       1  UNL1       -0.2025
     12 C         138.0886  142.6157  164.3764 C.ar    1  UNL1        0.1300
     13 N         139.3058  141.9553  163.7999 N.ar    1  UNL1       -0.2241
     14 C         142.7398  140.9499  165.2598 C.ar    1  UNL1        0.0161
     15 C         142.8112  142.0629  166.2628 C.ar    1  UNL1        0.0011
     16 C         142.7674  141.7543  167.7300 C.ar    1  UNL1       -0.0042
     17 C         142.6522  140.3326  168.1943 C.ar    1  UNL1       -0.0225
     18 C         142.5808  139.2196  167.1913 C.ar    1  UNL1       -0.0042
     19 C         142.6246  139.5282  165.7241 C.ar    1  UNL1        0.0011
     20 C         142.6084  140.0240  169.6615 C.3     1  UNL1        0.0224
     21 C         142.7546  138.6082  170.1348 C.3     1  UNL1        0.0047
     22 C         142.4184  141.1312  170.6555 C.3     1  UNL1        0.0047
     23 C         144.2631  141.1188  160.2069 C.3     1  UNL1        0.1004
     24 N         143.7708  140.1419  159.1806 N.3     1  UNL1       -0.2646
     25 C         143.1362  138.8540  159.6147 C.3     1  UNL1        0.1049
     26 C         142.6439  137.8771  158.5884 C.3     1  UNL1        0.1595
     27 O         142.7862  138.1882  157.1279 O.3     1  UNL1       -0.3508
     28 C         143.4208  139.4761  156.6938 C.3     1  UNL1        0.1595
     29 C         143.9131  140.4530  157.7201 C.3     1  UNL1        0.1049
@<TRIPOS>BOND
     1     1     2    1
     2     2     3   ar
     3     3    23    1
     4    23    24    1
     5    24    25    1
     6    25    26    1
     7    26    27    1
     8    27    28    1
     9    28    29    1
    10     3     4   ar
    11     4     5   ar
    12     5    14    1
    13    14    15   ar
    14    15    16   ar
    15    16    17   ar
    16    17    20    1
    17    20    21    1
    18    20    22    1
    19    17    18   ar
    20    18    19   ar
    21     5     6   ar
    22     6     7    1
    23     7     8   ar
    24     8     9   ar
    25     9    10   ar
    26    10    11    1
    27    10    12   ar
    28    12    13   ar
    29     6     2   ar
    30    13     7   ar
    31    29    24    1
    32    19    14   ar
@<TRIPOS>MOLECULE
*****
 29 32 0 0 0
SMALL
GASTEIGER

@<TRIPOS>ATOM
      1 C         142.0775  140.4765  158.2011 C.3     1  UNL1        0.0501
      2 C         140.9499  140.1274  159.1266 C.ar    1  UNL1        0.0404
      3 C         139.5398  139.8166  158.7202 C.ar    1  UNL1        0.0074
      4 C         138.7528  139.5249  159.9634 C.ar    1  UNL1        0.0158
      5 C         139.6764  139.6555  161.1381 C.ar    1  UNL1        0.0647
      6 N         141.0343  140.0278  160.6209 N.ar    1  UNL1       -0.2957
      7 C         142.2612  140.2599  161.4521 C.ar    1  UNL1        0.1476
      8 C         142.9475  139.1029  162.1156 C.ar    1  UNL1        0.0397
      9 C         144.1744  139.3349  162.9468 C.ar    1  UNL1        0.0343
     10 C         144.7150  140.7240  163.1145 C.ar    1  UNL1        0.1593
     11 F         145.9419  140.9561  163.9457 F       1  UNL1       -0.2025
     12 C         144.0287  141.8811  162.4509 C.ar    1  UNL1        0.1300
     13 N         142.8018  141.6490  161.6197 N.ar    1  UNL1       -0.2241
     14 C         139.3070  139.4498  162.5773 C.ar    1  UNL1        0.0161
     15 C         138.9187  140.6232  163.4270 C.ar    1  UNL1        0.0011
     16 C         138.5493  140.4176  164.8662 C.ar    1  UNL1       -0.0042
     17 C         138.5682  139.0384  165.4556 C.ar    1  UNL1       -0.0225
     18 C         138.9565  137.8649  164.6059 C.ar    1  UNL1       -0.0042
     19 C         139.3259  138.0706  163.1667 C.ar    1  UNL1        0.0011
     20 C         138.1988  138.8328  166.8948 C.3     1  UNL1        0.0224
     21 C         138.8523  139.6592  167.9623 C.3     1  UNL1        0.0047
     22 C         137.1758  137.8005  167.2664 C.3     1  UNL1        0.0047
     23 C         139.0099  139.8003  157.3171 C.3     1  UNL1        0.1004
     24 N         138.2714  140.9905  156.7804 N.3     1  UNL1       -0.2646
     25 C         136.8765  140.8321  156.2521 C.3     1  UNL1        0.1049
     26 C         136.1381  142.0223  155.7154 C.3     1  UNL1        0.1595
     27 O         136.7947  143.3710  155.7070 O.3     1  UNL1       -0.3508
     28 C         138.1895  143.5295  156.2353 C.3     1  UNL1        0.1595
     29 C         138.9279  142.3392  156.7720 C.3     1  UNL1        0.1049
@<TRIPOS>BOND
     1     1     2    1
     2     2     3   ar
     3     3    23    1
     4    23    24    1
     5    24    25    1
     6    25    26    1
     7    26    27    1
     8    27    28    1
     9    28    29    1
    10     3     4   ar
    11     4     5   ar
    12     5    14    1
    13    14    15   ar
    14    15    16   ar
    15    16    17   ar
    16    17    20    1
    17    20    21    1
    18    20    22    1
    19    17    18   ar
    20    18    19   ar
    21     5     6   ar
    22     6     7    1
    23     7     8   ar
    24     8     9   ar
    25     9    10   ar
    26    10    11    1
    27    10    12   ar
    28    12    13   ar
    29     6     2   ar
    30    13     7   ar
    31    29    24    1
    32    19    14   ar
