@<TRIPOS>MOLECULE
*****
 31 34 0 0 0
SMALL
GASTEIGER

@<TRIPOS>ATOM
      1 C         142.5652  139.8152  158.8612 C.2     1  UNL1        0.3047
      2 O         141.5614  140.8573  158.4658 O.2     1  UNL1       -0.2647
      3 N         143.2416  139.8944  160.1977 N.am    1  UNL1       -0.2647
      4 C         144.2634  139.0671  160.9199 C.3     1  UNL1        0.1391
      5 C         144.1982  140.0063  162.0878 C.3     1  UNL1        0.2052
      6 C         143.1764  140.8335  161.3655 C.3     1  UNL1        0.1391
      7 C         142.9795  136.5008  156.8842 C.ar    1  UNL1        0.2501
      8 N         143.8133  137.4362  156.0597 N.ar    1  UNL1       -0.1068
      9 N         143.7596  138.7917  156.6999 N.ar    1  UNL1       -0.1021
     10 C         142.8926  138.6940  157.9201 C.ar    1  UNL1        0.3043
     11 O         142.4105  137.2781  158.0340 O.2     1  UNL1       -0.4122
     12 C         142.3039  132.1299  156.0541 C.ar    1  UNL1        0.1387
     13 C         141.5260  133.1659  155.2981 C.ar    1  UNL1        0.0371
     14 C         141.7512  134.6229  155.5748 C.ar    1  UNL1        0.0078
     15 C         142.7543  135.0438  156.6075 C.ar    1  UNL1        0.0553
     16 C         143.5322  134.0078  157.3635 C.ar    1  UNL1        0.0078
     17 C         143.3070  132.5509  157.0868 C.ar    1  UNL1        0.0371
     18 C         140.9649  130.2457  154.8682 C.3     1  UNL1        0.2525
     19 O         142.0787  130.6730  155.7774 O.3     1  UNL1       -0.4714
     20 O         144.8746  140.0855  163.4242 O.3     1  UNL1       -0.4756
     21 C         144.0573  140.0514  164.6816 C.ar    1  UNL1        0.1382
     22 C         143.8284  138.7506  165.3924 C.ar    1  UNL1        0.0366
     23 C         143.0112  138.7166  166.6498 C.ar    1  UNL1       -0.0001
     24 C         142.4228  139.9836  167.1964 C.ar    1  UNL1       -0.0099
     25 C         142.6517  141.2844  166.4856 C.ar    1  UNL1       -0.0215
     26 C         142.0633  142.5513  167.0321 C.3     1  UNL1        0.0308
     27 C         143.4690  141.3184  165.2281 C.ar    1  UNL1        0.0324
     28 C         141.6056  139.9496  168.4537 C.3     1  UNL1        0.0989
     29 N         140.1094  140.0249  168.3780 N.3     1  UNL1       -0.2665
     30 C         139.3145  140.3964  169.5947 C.3     1  UNL1        0.0899
     31 C         139.4080  139.7286  167.0856 C.3     1  UNL1        0.0899
@<TRIPOS>BOND
     1    18    19    1
     2    19    12    1
     3    12    13   ar
     4    13    14   ar
     5    14    15   ar
     6    15     7    1
     7     7     8   ar
     8     8     9   ar
     9     9    10   ar
    10    10     1    1
    11     1     2    2
    12     1     3   am
    13     3     4    1
    14     4     5    1
    15     5    20    1
    16    20    21    1
    17    21    22   ar
    18    22    23   ar
    19    23    24   ar
    20    24    28    1
    21    28    29    1
    22    29    30    1
    23    29    31    1
    24    24    25   ar
    25    25    26    1
    26    25    27   ar
    27     5     6    1
    28    10    11   ar
    29    15    16   ar
    30    16    17   ar
    31    17    12   ar
    32    11     7   ar
    33     6     3    1
    34    27    21   ar
@<TRIPOS>MOLECULE
*****
 31 34 0 0 0
SMALL
GASTEIGER

@<TRIPOS>ATOM
      1 C         142.6002  139.7433  158.6778 C.2     1  UNL1        0.3047
      2 O         141.6310  140.7908  158.2158 O.2     1  UNL1       -0.2647
      3 N         143.2235  139.8460  160.0383 N.am    1  UNL1       -0.2647
      4 C         144.2011  139.0214  160.8220 C.3     1  UNL1        0.1391
      5 C         144.1049  139.9912  161.9624 C.3     1  UNL1        0.2052
      6 C         143.1272  140.8158  161.1786 C.3     1  UNL1        0.1391
      7 C         143.0833  136.3613  156.8355 C.ar    1  UNL1        0.2501
      8 N         143.8738  137.2853  155.9572 N.ar    1  UNL1       -0.1068
      9 N         143.7891  138.6647  156.5404 N.ar    1  UNL1       -0.1021
     10 C         142.9462  138.5932  157.7791 C.ar    1  UNL1        0.3043
     11 O         142.5101  137.1696  157.9615 O.2     1  UNL1       -0.4122
     12 C         142.5291  131.9405  156.2032 C.ar    1  UNL1        0.1387
     13 C         143.5384  132.4354  157.1964 C.ar    1  UNL1        0.0371
     14 C         143.7232  133.9090  157.4071 C.ar    1  UNL1        0.0078
     15 C         142.8986  134.8877  156.6247 C.ar    1  UNL1        0.0553
     16 C         141.8893  134.3928  155.6316 C.ar    1  UNL1        0.0078
     17 C         141.7045  132.9193  155.4209 C.ar    1  UNL1        0.0371
     18 C         143.1069  129.4875  156.8346 C.3     1  UNL1        0.2525
     19 O         142.3443  130.4670  155.9925 O.3     1  UNL1       -0.4714
     20 O         144.7281  140.0939  163.3228 O.3     1  UNL1       -0.4756
     21 C         143.8616  140.0853  164.5473 C.ar    1  UNL1        0.1382
     22 C         143.8542  138.8893  165.4525 C.ar    1  UNL1        0.0366
     23 C         142.9878  138.8808  166.6769 C.ar    1  UNL1       -0.0001
     24 C         142.1287  140.0682  166.9961 C.ar    1  UNL1       -0.0099
     25 C         142.1361  141.2642  166.0909 C.ar    1  UNL1       -0.0215
     26 C         141.2770  142.4517  166.4101 C.3     1  UNL1        0.0308
     27 C         143.0025  141.2728  164.8664 C.ar    1  UNL1        0.0324
     28 C         141.2623  140.0597  168.2205 C.3     1  UNL1        0.0989
     29 N         141.7797  140.6262  169.5094 N.3     1  UNL1       -0.2665
     30 C         143.1454  141.2445  169.5622 C.3     1  UNL1        0.0899
     31 C         140.9316  140.5745  170.7456 C.3     1  UNL1        0.0899
@<TRIPOS>BOND
     1    18    19    1
     2    19    12    1
     3    12    13   ar
     4    13    14   ar
     5    14    15   ar
     6    15     7    1
     7     7     8   ar
     8     8     9   ar
     9     9    10   ar
    10    10     1    1
    11     1     2    2
    12     1     3   am
    13     3     4    1
    14     4     5    1
    15     5    20    1
    16    20    21    1
    17    21    22   ar
    18    22    23   ar
    19    23    24   ar
    20    24    28    1
    21    28    29    1
    22    29    30    1
    23    29    31    1
    24    24    25   ar
    25    25    26    1
    26    25    27   ar
    27     5     6    1
    28    10    11   ar
    29    15    16   ar
    30    16    17   ar
    31    17    12   ar
    32    11     7   ar
    33     6     3    1
    34    27    21   ar
@<TRIPOS>MOLECULE
*****
 31 34 0 0 0
SMALL
GASTEIGER

@<TRIPOS>ATOM
      1 C         139.6425  139.0569  158.9581 C.2     1  UNL1        0.3047
      2 O         138.5137  139.6044  158.1359 O.2     1  UNL1       -0.2647
      3 N         139.3935  138.6025  160.3658 N.am    1  UNL1       -0.2647
      4 C         140.2407  138.0196  161.4577 C.3     1  UNL1        0.1391
      5 C         139.0412  137.9598  162.3565 C.3     1  UNL1        0.2052
      6 C         138.1939  138.5427  161.2645 C.3     1  UNL1        0.1391
      7 C         143.1818  139.5692  157.4492 C.ar    1  UNL1        0.2501
      8 N         143.0998  138.0721  157.4943 N.ar    1  UNL1       -0.1068
      9 N         141.7640  137.6980  158.0650 N.ar    1  UNL1       -0.1021
     10 C         141.0204  138.9638  158.3727 C.ar    1  UNL1        0.3043
     11 O         141.8966  140.1203  157.9921 O.2     1  UNL1       -0.4122
     12 C         146.6705  141.9833  155.9488 C.ar    1  UNL1        0.1387
     13 C         146.1999  140.7859  155.1775 C.ar    1  UNL1        0.0371
     14 C         145.0370  139.9812  155.6777 C.ar    1  UNL1        0.0078
     15 C         144.3447  140.3739  156.9490 C.ar    1  UNL1        0.0553
     16 C         144.8152  141.5713  157.7202 C.ar    1  UNL1        0.0078
     17 C         145.9781  142.3759  157.2201 C.ar    1  UNL1        0.0371
     18 C         148.5875  142.3399  154.2319 C.3     1  UNL1        0.2525
     19 O         147.8334  142.7879  155.4486 O.3     1  UNL1       -0.4714
     20 O         138.7921  137.5054  163.7641 O.3     1  UNL1       -0.4756
     21 C         139.3669  138.2778  164.9144 C.ar    1  UNL1        0.1382
     22 C         138.4579  138.8603  165.9556 C.ar    1  UNL1        0.0366
     23 C         139.0327  139.6326  167.1058 C.ar    1  UNL1       -0.0001
     24 C         140.5166  139.8226  167.2148 C.ar    1  UNL1       -0.0099
     25 C         141.4257  139.2401  166.1735 C.ar    1  UNL1       -0.0215
     26 C         142.9096  139.4300  166.2825 C.3     1  UNL1        0.0308
     27 C         140.8509  138.4677  165.0232 C.ar    1  UNL1        0.0324
     28 C         141.0914  140.5949  168.3650 C.3     1  UNL1        0.0989
     29 N         141.2432  139.9409  169.7063 N.3     1  UNL1       -0.2665
     30 C         142.4480  139.0957  169.9967 C.3     1  UNL1        0.0899
     31 C         140.1902  140.1320  170.7574 C.3     1  UNL1        0.0899
@<TRIPOS>BOND
     1    18    19    1
     2    19    12    1
     3    12    13   ar
     4    13    14   ar
     5    14    15   ar
     6    15     7    1
     7     7     8   ar
     8     8     9   ar
     9     9    10   ar
    10    10     1    1
    11     1     2    2
    12     1     3   am
    13     3     4    1
    14     4     5    1
    15     5    20    1
    16    20    21    1
    17    21    22   ar
    18    22    23   ar
    19    23    24   ar
    20    24    28    1
    21    28    29    1
    22    29    30    1
    23    29    31    1
    24    24    25   ar
    25    25    26    1
    26    25    27   ar
    27     5     6    1
    28    10    11   ar
    29    15    16   ar
    30    16    17   ar
    31    17    12   ar
    32    11     7   ar
    33     6     3    1
    34    27    21   ar
@<TRIPOS>MOLECULE
*****
 31 34 0 0 0
SMALL
GASTEIGER

@<TRIPOS>ATOM
      1 C         142.6200  138.7124  159.0492 C.2     1  UNL1        0.3047
      2 O         143.8818  139.5214  159.1074 O.2     1  UNL1       -0.2647
      3 N         141.4773  139.0382  159.9646 N.am    1  UNL1       -0.2647
      4 C         140.1056  138.4750  160.1907 C.3     1  UNL1        0.1391
      5 C         139.8612  139.4991  161.2592 C.3     1  UNL1        0.2052
      6 C         141.2329  140.0623  161.0331 C.3     1  UNL1        0.1391
      7 C         142.8637  135.4642  156.9384 C.ar    1  UNL1        0.2501
      8 N         141.7723  136.1977  156.2167 N.ar    1  UNL1       -0.1068
      9 N         141.5481  137.5038  156.9196 N.ar    1  UNL1       -0.1021
     10 C         142.5010  137.5775  158.0757 C.ar    1  UNL1        0.3043
     11 O         143.3141  136.3170  158.0873 O.2     1  UNL1       -0.4122
     12 C         144.4996  131.4164  155.8481 C.ar    1  UNL1        0.1387
     13 C         143.5814  132.1335  154.9034 C.ar    1  UNL1        0.0371
     14 C         143.0361  133.4828  155.2668 C.ar    1  UNL1        0.0078
     15 C         143.4090  134.1149  156.5750 C.ar    1  UNL1        0.0553
     16 C         144.3271  133.3978  157.5197 C.ar    1  UNL1        0.0078
     17 C         144.8724  132.0485  157.1563 C.ar    1  UNL1        0.0371
     18 C         144.5193  129.3456  154.2793 C.3     1  UNL1        0.2525
     19 O         145.0449  130.0671  155.4847 O.3     1  UNL1       -0.4714
     20 O         138.7185  139.8249  162.1745 O.3     1  UNL1       -0.4756
     21 C         138.9524  139.9501  163.6510 C.ar    1  UNL1        0.1382
     22 C         138.6823  138.7838  164.5547 C.ar    1  UNL1        0.0366
     23 C         138.9161  138.9089  166.0310 C.ar    1  UNL1       -0.0001
     24 C         139.4201  140.2005  166.6037 C.ar    1  UNL1       -0.0099
     25 C         139.6902  141.3667  165.7000 C.ar    1  UNL1       -0.0215
     26 C         140.1942  142.6583  166.2727 C.3     1  UNL1        0.0308
     27 C         139.4564  141.2416  164.2236 C.ar    1  UNL1        0.0324
     28 C         139.6540  140.3256  168.0800 C.3     1  UNL1        0.0989
     29 N         140.9787  139.9350  168.6653 N.3     1  UNL1       -0.2665
     30 C         142.1592  139.7123  167.7669 C.3     1  UNL1        0.0899
     31 C         141.1231  139.7672  170.1489 C.3     1  UNL1        0.0899
@<TRIPOS>BOND
     1    18    19    1
     2    19    12    1
     3    12    13   ar
     4    13    14   ar
     5    14    15   ar
     6    15     7    1
     7     7     8   ar
     8     8     9   ar
     9     9    10   ar
    10    10     1    1
    11     1     2    2
    12     1     3   am
    13     3     4    1
    14     4     5    1
    15     5    20    1
    16    20    21    1
    17    21    22   ar
    18    22    23   ar
    19    23    24   ar
    20    24    28    1
    21    28    29    1
    22    29    30    1
    23    29    31    1
    24    24    25   ar
    25    25    26    1
    26    25    27   ar
    27     5     6    1
    28    10    11   ar
    29    15    16   ar
    30    16    17   ar
    31    17    12   ar
    32    11     7   ar
    33     6     3    1
    34    27    21   ar
@<TRIPOS>MOLECULE
*****
 31 34 0 0 0
SMALL
GASTEIGER

@<TRIPOS>ATOM
      1 C         142.3627  138.4090  158.0445 C.2     1  UNL1        0.3047
      2 O         143.6525  139.1748  158.0424 O.2     1  UNL1       -0.2647
      3 N         141.1989  138.9023  158.8522 N.am    1  UNL1       -0.2647
      4 C         139.7980  138.4244  159.0952 C.3     1  UNL1        0.1391
      5 C         139.5531  139.5998  159.9944 C.3     1  UNL1        0.2052
      6 C         140.9540  140.0777  159.7513 C.3     1  UNL1        0.1391
      7 C         142.6597  134.9406  156.3277 C.ar    1  UNL1        0.2501
      8 N         141.4260  135.4846  155.6705 N.ar    1  UNL1       -0.1068
      9 N         141.1645  136.8501  156.2336 N.ar    1  UNL1       -0.1021
     10 C         142.2367  137.1501  157.2388 C.ar    1  UNL1        0.3043
     11 O         143.1607  135.9699  157.2970 O.2     1  UNL1       -0.4122
     12 C         144.5295  130.9257  155.5313 C.ar    1  UNL1        0.1387
     13 C         143.5281  131.4910  154.5683 C.ar    1  UNL1        0.0371
     14 C         142.9048  132.8293  154.8337 C.ar    1  UNL1        0.0078
     15 C         143.2830  133.6023  156.0623 C.ar    1  UNL1        0.0553
     16 C         144.2844  133.0370  157.0253 C.ar    1  UNL1        0.0078
     17 C         144.9077  131.6987  156.7599 C.ar    1  UNL1        0.0371
     18 C         144.4570  128.3348  155.7094 C.3     1  UNL1        0.2525
     19 O         145.1528  129.5874  155.2659 O.3     1  UNL1       -0.4714
     20 O         138.3893  140.0930  160.8020 O.3     1  UNL1       -0.4756
     21 C         138.3898  139.9327  162.2935 C.ar    1  UNL1        0.1382
     22 C         137.9758  141.0766  163.1710 C.ar    1  UNL1        0.0366
     23 C         137.9763  140.9163  164.6623 C.ar    1  UNL1       -0.0001
     24 C         138.3908  139.6120  165.2763 C.ar    1  UNL1       -0.0099
     25 C         138.8048  138.4681  164.3989 C.ar    1  UNL1       -0.0215
     26 C         139.2193  137.1638  165.0129 C.3     1  UNL1        0.0308
     27 C         138.8043  138.6284  162.9074 C.ar    1  UNL1        0.0324
     28 C         138.3913  139.4517  166.7677 C.3     1  UNL1        0.0989
     29 N         139.5622  139.9312  167.5732 N.3     1  UNL1       -0.2665
     30 C         140.8949  140.1305  166.9139 C.3     1  UNL1        0.0899
     31 C         139.4007  140.2116  169.0379 C.3     1  UNL1        0.0899
@<TRIPOS>BOND
     1    18    19    1
     2    19    12    1
     3    12    13   ar
     4    13    14   ar
     5    14    15   ar
     6    15     7    1
     7     7     8   ar
     8     8     9   ar
     9     9    10   ar
    10    10     1    1
    11     1     2    2
    12     1     3   am
    13     3     4    1
    14     4     5    1
    15     5    20    1
    16    20    21    1
    17    21    22   ar
    18    22    23   ar
    19    23    24   ar
    20    24    28    1
    21    28    29    1
    22    29    30    1
    23    29    31    1
    24    24    25   ar
    25    25    26    1
    26    25    27   ar
    27     5     6    1
    28    10    11   ar
    29    15    16   ar
    30    16    17   ar
    31    17    12   ar
    32    11     7   ar
    33     6     3    1
    34    27    21   ar
@<TRIPOS>MOLECULE
*****
 31 34 0 0 0
SMALL
GASTEIGER

@<TRIPOS>ATOM
      1 C         140.0338  139.0628  159.3502 C.2     1  UNL1        0.3047
      2 O         138.7143  139.4461  158.7485 O.2     1  UNL1       -0.2647
      3 N         141.0109  138.2466  158.5571 N.am    1  UNL1       -0.2647
      4 C         142.3803  137.6898  158.8114 C.3     1  UNL1        0.1391
      5 C         142.3928  137.0924  157.4355 C.3     1  UNL1        0.2052
      6 C         141.0234  137.6493  157.1812 C.3     1  UNL1        0.1391
      7 C         140.2935  139.8095  163.1503 C.ar    1  UNL1        0.2501
      8 N         141.5121  140.5143  162.6324 N.ar    1  UNL1       -0.1068
      9 N         141.5632  140.3204  161.1459 N.ar    1  UNL1       -0.1021
     10 C         140.3761  139.4958  160.7450 C.ar    1  UNL1        0.3043
     11 O         139.5914  139.1800  161.9837 O.2     1  UNL1       -0.4122
     12 C         138.9753  139.6174  167.4486 C.ar    1  UNL1        0.1387
     13 C         138.1791  138.9167  166.3879 C.ar    1  UNL1        0.0371
     14 C         138.6185  138.9808  164.9551 C.ar    1  UNL1        0.0078
     15 C         139.8541  139.7455  164.5830 C.ar    1  UNL1        0.0553
     16 C         140.6503  140.4461  165.6437 C.ar    1  UNL1        0.0078
     17 C         140.2109  140.3821  167.0765 C.ar    1  UNL1        0.0371
     18 C         139.1813  140.4406  169.9042 C.3     1  UNL1        0.2525
     19 O         138.5359  139.5533  168.8814 O.3     1  UNL1       -0.4714
     20 O         143.3699  136.2762  156.6424 O.3     1  UNL1       -0.4756
     21 C         143.1983  134.7893  156.5427 C.ar    1  UNL1        0.1382
     22 C         142.0587  134.2171  155.7529 C.ar    1  UNL1        0.0366
     23 C         141.8871  132.7303  155.6532 C.ar    1  UNL1       -0.0001
     24 C         142.8553  131.8157  156.3432 C.ar    1  UNL1       -0.0099
     25 C         143.9949  132.3879  157.1330 C.ar    1  UNL1       -0.0215
     26 C         144.9630  131.4732  157.8231 C.3     1  UNL1        0.0308
     27 C         144.1665  133.8747  157.2328 C.ar    1  UNL1        0.0324
     28 C         142.6837  130.3289  156.2435 C.3     1  UNL1        0.0989
     29 N         143.1288  129.6038  155.0082 N.3     1  UNL1       -0.2665
     30 C         142.2509  128.5508  154.3992 C.3     1  UNL1        0.0899
     31 C         144.4517  129.9316  154.3817 C.3     1  UNL1        0.0899
@<TRIPOS>BOND
     1    18    19    1
     2    19    12    1
     3    12    13   ar
     4    13    14   ar
     5    14    15   ar
     6    15     7    1
     7     7     8   ar
     8     8     9   ar
     9     9    10   ar
    10    10     1    1
    11     1     2    2
    12     1     3   am
    13     3     4    1
    14     4     5    1
    15     5    20    1
    16    20    21    1
    17    21    22   ar
    18    22    23   ar
    19    23    24   ar
    20    24    28    1
    21    28    29    1
    22    29    30    1
    23    29    31    1
    24    24    25   ar
    25    25    26    1
    26    25    27   ar
    27     5     6    1
    28    10    11   ar
    29    15    16   ar
    30    16    17   ar
    31    17    12   ar
    32    11     7   ar
    33     6     3    1
    34    27    21   ar
@<TRIPOS>MOLECULE
*****
 31 34 0 0 0
SMALL
GASTEIGER

@<TRIPOS>ATOM
      1 C         140.2149  138.7817  160.6759 C.2     1  UNL1        0.3047
      2 O         138.9482  139.5120  160.3414 O.2     1  UNL1       -0.2647
      3 N         141.1647  138.3881  159.5836 N.am    1  UNL1       -0.2647
      4 C         142.4828  137.6743  159.5303 C.3     1  UNL1        0.1391
      5 C         142.5077  137.8316  158.0388 C.3     1  UNL1        0.2052
      6 C         141.1896  138.5455  158.0921 C.3     1  UNL1        0.1391
      7 C         140.8335  138.6236  164.5045 C.ar    1  UNL1        0.2501
      8 N         141.2063  137.2302  164.0928 N.ar    1  UNL1       -0.1068
      9 N         141.0200  137.1198  162.6085 N.ar    1  UNL1       -0.1021
     10 C         140.5320  138.4450  162.1028 C.ar    1  UNL1        0.3043
     11 O         140.4167  139.3743  163.2746 O.2     1  UNL1       -0.4122
     12 C         140.9456  140.2634  168.6935 C.ar    1  UNL1        0.1387
     13 C         139.6354  140.1284  167.9758 C.ar    1  UNL1        0.0371
     14 C         139.5981  139.5818  166.5794 C.ar    1  UNL1        0.0078
     15 C         140.8708  139.1702  165.9008 C.ar    1  UNL1        0.0553
     16 C         142.1810  139.3052  166.6186 C.ar    1  UNL1        0.0078
     17 C         142.2183  139.8519  168.0150 C.ar    1  UNL1        0.0371
     18 C         140.4404  142.1793  170.3741 C.3     1  UNL1        0.2525
     19 O         140.9829  140.8101  170.0899 O.3     1  UNL1       -0.4714
     20 O         143.4574  137.4381  156.9465 O.3     1  UNL1       -0.4756
     21 C         143.3019  136.1142  156.2584 C.ar    1  UNL1        0.1382
     22 C         143.7855  134.8608  156.9254 C.ar    1  UNL1        0.0366
     23 C         143.6300  133.5371  156.2373 C.ar    1  UNL1       -0.0001
     24 C         142.9909  133.4668  154.8820 C.ar    1  UNL1       -0.0099
     25 C         142.5074  134.7202  154.2150 C.ar    1  UNL1       -0.0215
     26 C         141.8683  134.6498  152.8598 C.3     1  UNL1        0.0308
     27 C         142.6628  136.0440  154.9031 C.ar    1  UNL1        0.0324
     28 C         142.8355  132.1430  154.1939 C.3     1  UNL1        0.0989
     29 N         141.9298  131.0977  154.7745 N.3     1  UNL1       -0.2665
     30 C         140.4451  131.2050  154.5894 C.3     1  UNL1        0.0899
     31 C         142.5088  129.9452  155.5403 C.3     1  UNL1        0.0899
@<TRIPOS>BOND
     1    18    19    1
     2    19    12    1
     3    12    13   ar
     4    13    14   ar
     5    14    15   ar
     6    15     7    1
     7     7     8   ar
     8     8     9   ar
     9     9    10   ar
    10    10     1    1
    11     1     2    2
    12     1     3   am
    13     3     4    1
    14     4     5    1
    15     5    20    1
    16    20    21    1
    17    21    22   ar
    18    22    23   ar
    19    23    24   ar
    20    24    28    1
    21    28    29    1
    22    29    30    1
    23    29    31    1
    24    24    25   ar
    25    25    26    1
    26    25    27   ar
    27     5     6    1
    28    10    11   ar
    29    15    16   ar
    30    16    17   ar
    31    17    12   ar
    32    11     7   ar
    33     6     3    1
    34    27    21   ar
@<TRIPOS>MOLECULE
*****
 31 34 0 0 0
SMALL
GASTEIGER

@<TRIPOS>ATOM
      1 C         138.6967  139.8309  158.9423 C.2     1  UNL1        0.3047
      2 O         137.8516  141.0226  158.6025 O.2     1  UNL1       -0.2647
      3 N         138.6349  139.2352  160.3176 N.am    1  UNL1       -0.2647
      4 C         139.3065  138.0842  161.0060 C.3     1  UNL1        0.1391
      5 C         138.5474  138.3928  162.2625 C.3     1  UNL1        0.2052
      6 C         137.8758  139.5438  161.5740 C.3     1  UNL1        0.1391
      7 C         140.9468  137.6502  156.6516 C.ar    1  UNL1        0.2501
      8 N         141.0521  138.9850  155.9755 N.ar    1  UNL1       -0.1068
      9 N         140.2220  139.9644  156.7513 N.ar    1  UNL1       -0.1021
     10 C         139.6037  139.2349  157.9069 C.ar    1  UNL1        0.3043
     11 O         140.0516  137.8046  157.8453 O.2     1  UNL1       -0.4122
     12 C         142.9624  133.8498  155.3308 C.ar    1  UNL1        0.1387
     13 C         143.5781  134.6891  156.4108 C.ar    1  UNL1        0.0371
     14 C         142.9063  135.9559  156.8510 C.ar    1  UNL1        0.0078
     15 C         141.6186  136.3834  156.2113 C.ar    1  UNL1        0.0553
     16 C         141.0029  135.5441  155.1314 C.ar    1  UNL1        0.0078
     17 C         141.6747  134.2773  154.6912 C.ar    1  UNL1        0.0371
     18 C         143.9041  131.4926  155.8846 C.3     1  UNL1        0.2525
     19 O         143.6342  132.5830  154.8906 O.3     1  UNL1       -0.4714
     20 O         138.4856  137.7971  163.6377 O.3     1  UNL1       -0.4756
     21 C         139.1708  138.4818  164.7831 C.ar    1  UNL1        0.1382
     22 C         138.3598  139.1917  165.8262 C.ar    1  UNL1        0.0366
     23 C         139.0450  139.8764  166.9715 C.ar    1  UNL1       -0.0001
     24 C         140.5413  139.8510  167.0738 C.ar    1  UNL1       -0.0099
     25 C         141.3523  139.1411  166.0307 C.ar    1  UNL1       -0.0215
     26 C         142.8486  139.1158  166.1329 C.3     1  UNL1        0.0308
     27 C         140.6671  138.4564  164.8853 C.ar    1  UNL1        0.0324
     28 C         141.2265  140.5356  168.2191 C.3     1  UNL1        0.0989
     29 N         141.2873  139.8708  169.5623 N.3     1  UNL1       -0.2665
     30 C         142.4391  138.9721  169.9029 C.3     1  UNL1        0.0899
     31 C         140.1964  140.1046  170.5650 C.3     1  UNL1        0.0899
@<TRIPOS>BOND
     1    18    19    1
     2    19    12    1
     3    12    13   ar
     4    13    14   ar
     5    14    15   ar
     6    15     7    1
     7     7     8   ar
     8     8     9   ar
     9     9    10   ar
    10    10     1    1
    11     1     2    2
    12     1     3   am
    13     3     4    1
    14     4     5    1
    15     5    20    1
    16    20    21    1
    17    21    22   ar
    18    22    23   ar
    19    23    24   ar
    20    24    28    1
    21    28    29    1
    22    29    30    1
    23    29    31    1
    24    24    25   ar
    25    25    26    1
    26    25    27   ar
    27     5     6    1
    28    10    11   ar
    29    15    16   ar
    30    16    17   ar
    31    17    12   ar
    32    11     7   ar
    33     6     3    1
    34    27    21   ar
@<TRIPOS>MOLECULE
*****
 31 34 0 0 0
SMALL
GASTEIGER

@<TRIPOS>ATOM
      1 C         141.5442  139.7296  157.2445 C.2     1  UNL1        0.3047
      2 O         141.9735  141.0301  156.6326 O.2     1  UNL1       -0.2647
      3 N         140.4089  139.7005  158.2245 N.am    1  UNL1       -0.2647
      4 C         139.7191  138.6299  159.0169 C.3     1  UNL1        0.1391
      5 C         138.8034  139.6593  159.6104 C.3     1  UNL1        0.2052
      6 C         139.4933  140.7298  158.8179 C.3     1  UNL1        0.1391
      7 C         142.7036  136.1167  156.4273 C.ar    1  UNL1        0.2501
      8 N         143.9689  136.8872  156.1926 N.ar    1  UNL1       -0.1068
      9 N         143.6887  138.3345  156.4701 N.ar    1  UNL1       -0.1021
     10 C         142.2501  138.4583  156.8764 C.ar    1  UNL1        0.3043
     11 O         141.6413  137.0877  156.8499 O.2     1  UNL1       -0.4122
     12 C         142.1854  131.6724  155.9477 C.ar    1  UNL1        0.1387
     13 C         143.1704  132.2096  156.9433 C.ar    1  UNL1        0.0371
     14 C         143.3431  133.6910  157.1031 C.ar    1  UNL1        0.0078
     15 C         142.5309  134.6353  156.2674 C.ar    1  UNL1        0.0553
     16 C         141.5459  134.0981  155.2718 C.ar    1  UNL1        0.0078
     17 C         141.3732  132.6167  155.1119 C.ar    1  UNL1        0.0371
     18 C         140.8848  129.6526  154.9585 C.3     1  UNL1        0.2525
     19 O         142.0127  130.1910  155.7878 O.3     1  UNL1       -0.4714
     20 O         137.6683  139.6301  160.5903 O.3     1  UNL1       -0.4756
     21 C         137.9485  139.6560  162.0638 C.ar    1  UNL1        0.1382
     22 C         137.6894  140.9038  162.8548 C.ar    1  UNL1        0.0366
     23 C         137.9696  140.9296  164.3281 C.ar    1  UNL1       -0.0001
     24 C         138.5091  139.7075  165.0105 C.ar    1  UNL1       -0.0099
     25 C         138.7682  138.4598  164.2195 C.ar    1  UNL1       -0.0215
     26 C         139.3077  137.2377  164.9019 C.3     1  UNL1        0.0308
     27 C         138.4880  138.4339  162.7461 C.ar    1  UNL1        0.0324
     28 C         138.7893  139.7334  166.4838 C.3     1  UNL1        0.0989
     29 N         140.0380  140.3861  166.9984 N.3     1  UNL1       -0.2665
     30 C         141.2819  140.3912  166.1599 C.3     1  UNL1        0.0899
     31 C         140.0429  141.0337  168.3514 C.3     1  UNL1        0.0899
@<TRIPOS>BOND
     1    18    19    1
     2    19    12    1
     3    12    13   ar
     4    13    14   ar
     5    14    15   ar
     6    15     7    1
     7     7     8   ar
     8     8     9   ar
     9     9    10   ar
    10    10     1    1
    11     1     2    2
    12     1     3   am
    13     3     4    1
    14     4     5    1
    15     5    20    1
    16    20    21    1
    17    21    22   ar
    18    22    23   ar
    19    23    24   ar
    20    24    28    1
    21    28    29    1
    22    29    30    1
    23    29    31    1
    24    24    25   ar
    25    25    26    1
    26    25    27   ar
    27     5     6    1
    28    10    11   ar
    29    15    16   ar
    30    16    17   ar
    31    17    12   ar
    32    11     7   ar
    33     6     3    1
    34    27    21   ar
