@<TRIPOS>MOLECULE
*****
 35 38 0 0 0
SMALL
GASTEIGER

@<TRIPOS>ATOM
      1 C         137.8904  142.6486  164.1073 C.3     1  UNL1        0.2722
      2 O         138.2294  140.3126  165.1927 O.2     1  UNL1       -0.2707
      3 C         138.6115  141.7584  165.0756 C.2     1  UNL1        0.2701
      4 N         139.7145  142.3140  165.9269 N.am    1  UNL1       -0.2663
      5 H         139.9652  143.2629  165.8500 H       1  UNL1        0.1564
      6 C         140.4355  141.4238  166.8952 C.ar    1  UNL1        0.1343
      7 C         141.6567  140.6715  166.4561 C.ar    1  UNL1        0.0354
      8 C         142.3777  139.7814  167.4244 C.ar    1  UNL1        0.0158
      9 C         141.8776  139.6435  168.8319 C.ar    1  UNL1        0.0769
     10 CL        142.5986  138.7533  169.8002 Cl      1  UNL1       -0.0806
     11 C         140.6565  140.3958  169.2710 C.ar    1  UNL1        0.1116
     12 N         139.9354  141.2860  168.3026 N.ar    1  UNL1       -0.2281
     13 C         137.8458  144.1297  164.3403 C.3     1  UNL1        0.1952
     14 O         139.1217  144.9120  164.4400 O.3     1  UNL1       -0.3467
     15 C         140.1782  144.7613  163.3859 C.3     1  UNL1        0.1740
     16 C         140.2206  145.7108  162.2254 C.3     1  UNL1        0.1692
     17 O         138.9505  146.1024  161.5300 O.3     1  UNL1       -0.3794
     18 H         138.5698  145.3259  161.0906 H       1  UNL1        0.2105
     19 O         137.2140  142.0577  162.9059 O.3     1  UNL1       -0.4517
     20 C         137.9708  141.9015  161.6202 C.ar    1  UNL1        0.2312
     21 N         138.2646  143.1033  160.7721 N.ar    1  UNL1       -0.1892
     22 C         139.0213  142.9471  159.4865 C.ar    1  UNL1        0.2029
     23 N         139.4843  141.5891  159.0490 N.ar    1  UNL1       -0.2045
     24 C         139.1905  140.3873  159.8970 C.ar    1  UNL1        0.1732
     25 C         138.4337  140.5435  161.1827 C.ar    1  UNL1        0.1099
     26 C         138.2927  139.1861  161.8054 C.ar    1  UNL1        0.1283
     27 N         138.9624  138.1911  160.9047 N.ar    1  UNL1       -0.1606
     28 N         139.5172  138.9334  159.7252 N.ar    1  UNL1       -0.1936
     29 C         140.2671  138.3282  158.5757 C.ar    1  UNL1        0.1759
     30 N         139.5199  137.8054  157.3848 N.ar    1  UNL1       -0.2242
     31 C         140.2698  137.2002  156.2353 C.ar    1  UNL1        0.1006
     32 C         141.7670  137.1177  156.2767 C.ar    1  UNL1        0.0217
     33 C         142.5142  137.6405  157.4676 C.ar    1  UNL1        0.0161
     34 C         141.7643  138.2457  158.6171 C.ar    1  UNL1        0.0935
     35 CL        142.5115  138.7685  159.8080 Cl      1  UNL1       -0.0790
@<TRIPOS>BOND
     1     2     3    2
     2     3     4   am
     3     4     6    1
     4     6     7   ar
     5     7     8   ar
     6     8     9   ar
     7     9    10    1
     8     9    11   ar
     9    11    12   ar
    10     3     1    1
    11     1    13    1
    12    13    14    1
    13    14    15    1
    14    15    16    1
    15    16    17    1
    16     1    19    1
    17    19    20    1
    18    20    21   ar
    19    21    22   ar
    20    22    23   ar
    21    23    24   ar
    22    24    25   ar
    23    25    26   ar
    24    26    27   ar
    25    27    28   ar
    26    28    29    1
    27    29    30   ar
    28    30    31   ar
    29    31    32   ar
    30    32    33   ar
    31    33    34   ar
    32    34    35    1
    33    12     6   ar
    34    25    20   ar
    35    34    29   ar
    36    28    24   ar
    37     4     5    1
    38    17    18    1
@<TRIPOS>MOLECULE
*****
 35 38 0 0 0
SMALL
GASTEIGER

@<TRIPOS>ATOM
      1 C         137.7768  140.5963  161.5590 C.3     1  UNL1        0.2722
      2 O         139.9325  140.6644  160.1104 O.2     1  UNL1       -0.2707
      3 C         138.7055  141.3407  160.6461 C.2     1  UNL1        0.2701
      4 N         138.4070  142.7615  160.2688 N.am    1  UNL1       -0.2663
      5 H         137.6016  143.2054  160.6204 H       1  UNL1        0.1564
      6 C         139.3355  143.5060  159.3558 C.ar    1  UNL1        0.1343
      7 C         140.3312  144.4729  159.9248 C.ar    1  UNL1        0.0354
      8 C         141.2598  145.2173  159.0119 C.ar    1  UNL1        0.0158
      9 C         141.1927  144.9949  157.5299 C.ar    1  UNL1        0.0769
     10 CL        142.1212  145.7394  156.6170 Cl      1  UNL1       -0.0806
     11 C         140.1970  144.0280  156.9610 C.ar    1  UNL1        0.1116
     12 N         139.2684  143.2836  157.8740 N.ar    1  UNL1       -0.2281
     13 C         137.5240  139.1338  161.3416 C.3     1  UNL1        0.1952
     14 O         138.6259  138.1409  161.5652 O.3     1  UNL1       -0.3467
     15 C         139.0458  137.7882  162.9614 C.3     1  UNL1        0.1740
     16 C         140.4567  137.3584  163.2343 C.3     1  UNL1        0.1692
     17 O         141.4211  137.1856  162.0985 O.3     1  UNL1       -0.3794
     18 H         141.1322  136.4482  161.5384 H       1  UNL1        0.2105
     19 O         137.1010  141.3143  162.6894 O.3     1  UNL1       -0.4517
     20 C         137.8982  142.2057  163.5950 C.ar    1  UNL1        0.2312
     21 N         137.9847  143.6764  163.3135 N.ar    1  UNL1       -0.1892
     22 C         138.7819  144.5677  164.2191 C.ar    1  UNL1        0.2029
     23 N         139.4924  143.9882  165.4062 N.ar    1  UNL1       -0.2045
     24 C         139.4059  142.5175  165.6878 C.ar    1  UNL1        0.1732
     25 C         138.6087  141.6262  164.7822 C.ar    1  UNL1        0.1099
     26 C         138.7050  140.2249  165.3087 C.ar    1  UNL1        0.1283
     27 N         139.5617  140.2502  166.5398 N.ar    1  UNL1       -0.1606
     28 N         139.9948  141.6671  166.7740 N.ar    1  UNL1       -0.1936
     29 C         140.8643  142.1490  167.8973 C.ar    1  UNL1        0.1759
     30 N         140.2960  143.0526  168.9510 N.ar    1  UNL1       -0.2242
     31 C         141.1654  143.5345  170.0743 C.ar    1  UNL1        0.1006
     32 C         142.6032  143.1128  170.1439 C.ar    1  UNL1        0.0217
     33 C         143.1715  142.2091  169.0902 C.ar    1  UNL1        0.0161
     34 C         142.3021  141.7272  167.9669 C.ar    1  UNL1        0.0935
     35 CL        142.8704  140.8235  166.9132 Cl      1  UNL1       -0.0790
@<TRIPOS>BOND
     1     2     3    2
     2     3     4   am
     3     4     6    1
     4     6     7   ar
     5     7     8   ar
     6     8     9   ar
     7     9    10    1
     8     9    11   ar
     9    11    12   ar
    10     3     1    1
    11     1    13    1
    12    13    14    1
    13    14    15    1
    14    15    16    1
    15    16    17    1
    16     1    19    1
    17    19    20    1
    18    20    21   ar
    19    21    22   ar
    20    22    23   ar
    21    23    24   ar
    22    24    25   ar
    23    25    26   ar
    24    26    27   ar
    25    27    28   ar
    26    28    29    1
    27    29    30   ar
    28    30    31   ar
    29    31    32   ar
    30    32    33   ar
    31    33    34   ar
    32    34    35    1
    33    12     6   ar
    34    25    20   ar
    35    34    29   ar
    36    28    24   ar
    37     4     5    1
    38    17    18    1
@<TRIPOS>MOLECULE
*****
 35 38 0 0 0
SMALL
GASTEIGER

@<TRIPOS>ATOM
      1 C         144.3274  140.4351  161.3514 C.3     1  UNL1        0.2722
      2 O         144.6832  142.5426  159.8743 O.2     1  UNL1       -0.2707
      3 C         143.7628  141.5871  160.5740 C.2     1  UNL1        0.2701
      4 N         142.2777  141.7834  160.4963 N.am    1  UNL1       -0.2663
      5 H         141.6736  141.1562  160.9556 H       1  UNL1        0.1564
      6 C         141.7131  142.9353  159.7190 C.ar    1  UNL1        0.1343
      7 C         141.4002  142.7745  158.2608 C.ar    1  UNL1        0.0354
      8 C         140.8356  143.9264  157.4835 C.ar    1  UNL1        0.0158
      9 C         140.5838  145.2392  158.1643 C.ar    1  UNL1        0.0769
     10 CL        140.0192  146.3911  157.3870 Cl      1  UNL1       -0.0806
     11 C         140.8967  145.3999  159.6225 C.ar    1  UNL1        0.1116
     12 N         141.4614  144.2479  160.3998 N.ar    1  UNL1       -0.2281
     13 C         144.0442  139.0273  160.9181 C.3     1  UNL1        0.1952
     14 O         143.0096  138.7603  159.8653 O.3     1  UNL1       -0.3467
     15 C         141.6539  138.2522  160.2580 C.3     1  UNL1        0.1740
     16 C         141.2611  138.2042  161.7048 C.3     1  UNL1        0.1692
     17 O         141.3648  136.9170  162.4678 O.3     1  UNL1       -0.3794
     18 H         140.7333  136.2753  162.1068 H       1  UNL1        0.2105
     19 O         145.1751  140.6910  162.5621 O.3     1  UNL1       -0.4517
     20 C         144.5584  141.2709  163.8005 C.ar    1  UNL1        0.2312
     21 N         144.7411  142.7253  164.1190 N.ar    1  UNL1       -0.1892
     22 C         144.1244  143.3051  165.3573 C.ar    1  UNL1        0.2029
     23 N         143.3251  142.4306  166.2772 N.ar    1  UNL1       -0.2045
     24 C         143.1423  140.9762  165.9587 C.ar    1  UNL1        0.1732
     25 C         143.7590  140.3964  164.7204 C.ar    1  UNL1        0.1099
     26 C         143.4103  138.9384  164.6679 C.ar    1  UNL1        0.1283
     27 N         142.5782  138.6171  165.8739 N.ar    1  UNL1       -0.1606
     28 N         142.4125  139.8766  166.6716 N.ar    1  UNL1       -0.1936
     29 C         141.6508  140.0126  167.9566 C.ar    1  UNL1        0.1759
     30 N         142.3832  140.0181  169.2657 N.ar    1  UNL1       -0.2242
     31 C         141.6215  140.1541  170.5507 C.ar    1  UNL1        0.1006
     32 C         140.1274  140.2845  170.5267 C.ar    1  UNL1        0.0217
     33 C         139.3950  140.2790  169.2177 C.ar    1  UNL1        0.0161
     34 C         140.1567  140.1430  167.9327 C.ar    1  UNL1        0.0935
     35 CL        139.4243  140.1375  166.6237 Cl      1  UNL1       -0.0790
@<TRIPOS>BOND
     1     2     3    2
     2     3     4   am
     3     4     6    1
     4     6     7   ar
     5     7     8   ar
     6     8     9   ar
     7     9    10    1
     8     9    11   ar
     9    11    12   ar
    10     3     1    1
    11     1    13    1
    12    13    14    1
    13    14    15    1
    14    15    16    1
    15    16    17    1
    16     1    19    1
    17    19    20    1
    18    20    21   ar
    19    21    22   ar
    20    22    23   ar
    21    23    24   ar
    22    24    25   ar
    23    25    26   ar
    24    26    27   ar
    25    27    28   ar
    26    28    29    1
    27    29    30   ar
    28    30    31   ar
    29    31    32   ar
    30    32    33   ar
    31    33    34   ar
    32    34    35    1
    33    12     6   ar
    34    25    20   ar
    35    34    29   ar
    36    28    24   ar
    37     4     5    1
    38    17    18    1
@<TRIPOS>MOLECULE
*****
 35 38 0 0 0
SMALL
GASTEIGER

@<TRIPOS>ATOM
      1 C         138.0040  142.2270  163.9965 C.3     1  UNL1        0.2722
      2 O         139.9087  143.0097  165.5806 O.2     1  UNL1       -0.2707
      3 C         138.9584  141.9450  165.1189 C.2     1  UNL1        0.2701
      4 N         138.9624  140.5983  165.7794 N.am    1  UNL1       -0.2663
      5 H         138.3387  139.8995  165.4764 H       1  UNL1        0.1564
      6 C         139.9168  140.3163  166.9018 C.ar    1  UNL1        0.1343
      7 C         141.3396  139.9479  166.6017 C.ar    1  UNL1        0.0354
      8 C         142.2939  139.6659  167.7240 C.ar    1  UNL1        0.0158
      9 C         141.8255  139.7523  169.1465 C.ar    1  UNL1        0.0769
     10 CL        142.7799  139.4703  170.2688 Cl      1  UNL1       -0.0806
     11 C         140.4028  140.1207  169.4465 C.ar    1  UNL1        0.1116
     12 N         139.4484  140.4027  168.3241 N.ar    1  UNL1       -0.2281
     13 C         137.7704  143.6390  163.5475 C.3     1  UNL1        0.1952
     14 O         138.2761  144.0943  162.2107 O.3     1  UNL1       -0.3467
     15 C         139.5167  144.9331  162.1241 C.3     1  UNL1        0.1740
     16 C         140.7588  144.3726  161.4972 C.3     1  UNL1        0.1692
     17 O         141.8327  145.2966  161.0044 O.3     1  UNL1       -0.3794
     18 H         141.4948  145.8164  160.2584 H       1  UNL1        0.2105
     19 O         137.2832  141.0969  163.3232 O.3     1  UNL1       -0.4517
     20 C         138.0616  139.9787  162.6958 C.ar    1  UNL1        0.2312
     21 N         138.4499  138.7834  163.5147 N.ar    1  UNL1       -0.1892
     22 C         139.2283  137.6653  162.8872 C.ar    1  UNL1        0.2029
     23 N         139.6185  137.7424  161.4409 N.ar    1  UNL1       -0.2045
     24 C         139.2303  138.9376  160.6221 C.ar    1  UNL1        0.1732
     25 C         138.4519  140.0558  161.2495 C.ar    1  UNL1        0.1099
     26 C         138.2124  141.1000  160.1996 C.ar    1  UNL1        0.1283
     27 N         138.8428  140.6272  158.9233 N.ar    1  UNL1       -0.1606
     28 N         139.4719  139.2908  159.1844 N.ar    1  UNL1       -0.1936
     29 C         140.2126  138.4543  158.1836 C.ar    1  UNL1        0.1759
     30 N         139.4680  137.7894  157.0641 N.ar    1  UNL1       -0.2242
     31 C         140.2087  136.9530  156.0632 C.ar    1  UNL1        0.1006
     32 C         141.6942  136.7814  156.1819 C.ar    1  UNL1        0.0217
     33 C         142.4388  137.4463  157.3014 C.ar    1  UNL1        0.0161
     34 C         141.6981  138.2827  158.3023 C.ar    1  UNL1        0.0935
     35 CL        142.4428  138.9476  159.4218 Cl      1  UNL1       -0.0790
@<TRIPOS>BOND
     1     2     3    2
     2     3     4   am
     3     4     6    1
     4     6     7   ar
     5     7     8   ar
     6     8     9   ar
     7     9    10    1
     8     9    11   ar
     9    11    12   ar
    10     3     1    1
    11     1    13    1
    12    13    14    1
    13    14    15    1
    14    15    16    1
    15    16    17    1
    16     1    19    1
    17    19    20    1
    18    20    21   ar
    19    21    22   ar
    20    22    23   ar
    21    23    24   ar
    22    24    25   ar
    23    25    26   ar
    24    26    27   ar
    25    27    28   ar
    26    28    29    1
    27    29    30   ar
    28    30    31   ar
    29    31    32   ar
    30    32    33   ar
    31    33    34   ar
    32    34    35    1
    33    12     6   ar
    34    25    20   ar
    35    34    29   ar
    36    28    24   ar
    37     4     5    1
    38    17    18    1
@<TRIPOS>MOLECULE
*****
 35 38 0 0 0
SMALL
GASTEIGER

@<TRIPOS>ATOM
      1 C         139.8693  144.5899  163.4504 C.3     1  UNL1        0.2722
      2 O         141.9565  143.7820  164.7700 O.2     1  UNL1       -0.2707
      3 C         140.4760  143.7455  164.5317 C.2     1  UNL1        0.2701
      4 N         139.6021  142.8647  165.3745 N.am    1  UNL1       -0.2663
      5 H         138.6304  142.8408  165.2181 H       1  UNL1        0.1564
      6 C         140.2087  142.0204  166.4558 C.ar    1  UNL1        0.1343
      7 C         140.5212  142.6245  167.7927 C.ar    1  UNL1        0.0354
      8 C         141.1277  141.7802  168.8739 C.ar    1  UNL1        0.0158
      9 C         141.4218  140.3316  168.6183 C.ar    1  UNL1        0.0769
     10 CL        142.0284  139.4873  169.6995 Cl      1  UNL1       -0.0806
     11 C         141.1093  139.7275  167.2814 C.ar    1  UNL1        0.1116
     12 N         140.5027  140.5719  166.2001 N.ar    1  UNL1       -0.2281
     13 C         138.3801  144.6290  163.2759 C.3     1  UNL1        0.1952
     14 O         137.7434  143.9372  162.1071 O.3     1  UNL1       -0.3467
     15 C         138.2056  142.5686  161.7029 C.3     1  UNL1        0.1740
     16 C         137.8660  141.3807  162.5535 C.3     1  UNL1        0.1692
     17 O         136.5117  141.2765  163.1898 O.3     1  UNL1       -0.3794
     18 H         136.4083  141.9820  163.8475 H       1  UNL1        0.2105
     19 O         140.7521  145.3952  162.5435 O.3     1  UNL1       -0.4517
     20 C         141.0225  144.9221  161.1460 C.ar    1  UNL1        0.2312
     21 N         140.0950  145.3061  160.0315 N.ar    1  UNL1       -0.1892
     22 C         140.3654  144.8330  158.6340 C.ar    1  UNL1        0.2029
     23 N         141.5633  143.9758  158.3511 N.ar    1  UNL1       -0.2045
     24 C         142.4908  143.5917  159.4656 C.ar    1  UNL1        0.1732
     25 C         142.2204  144.0648  160.8630 C.ar    1  UNL1        0.1099
     26 C         143.3040  143.5294  161.7515 C.ar    1  UNL1        0.1283
     27 N         144.2440  142.7254  160.9031 N.ar    1  UNL1       -0.1606
     28 N         143.7415  142.7639  159.4903 N.ar    1  UNL1       -0.1936
     29 C         144.3778  142.0924  158.3096 C.ar    1  UNL1        0.1759
     30 N         145.6479  142.6405  157.7296 N.ar    1  UNL1       -0.2242
     31 C         146.2843  141.9691  156.5488 C.ar    1  UNL1        0.1006
     32 C         145.6506  140.7494  155.9481 C.ar    1  UNL1        0.0217
     33 C         144.3805  140.2013  156.5281 C.ar    1  UNL1        0.0161
     34 C         143.7442  140.8728  157.7088 C.ar    1  UNL1        0.0935
     35 CL        142.4741  140.3246  158.2888 Cl      1  UNL1       -0.0790
@<TRIPOS>BOND
     1     2     3    2
     2     3     4   am
     3     4     6    1
     4     6     7   ar
     5     7     8   ar
     6     8     9   ar
     7     9    10    1
     8     9    11   ar
     9    11    12   ar
    10     3     1    1
    11     1    13    1
    12    13    14    1
    13    14    15    1
    14    15    16    1
    15    16    17    1
    16     1    19    1
    17    19    20    1
    18    20    21   ar
    19    21    22   ar
    20    22    23   ar
    21    23    24   ar
    22    24    25   ar
    23    25    26   ar
    24    26    27   ar
    25    27    28   ar
    26    28    29    1
    27    29    30   ar
    28    30    31   ar
    29    31    32   ar
    30    32    33   ar
    31    33    34   ar
    32    34    35    1
    33    12     6   ar
    34    25    20   ar
    35    34    29   ar
    36    28    24   ar
    37     4     5    1
    38    17    18    1
@<TRIPOS>MOLECULE
*****
 35 38 0 0 0
SMALL
GASTEIGER

@<TRIPOS>ATOM
      1 C         139.3393  138.0185  161.5415 C.3     1  UNL1        0.2722
      2 O         139.2951  138.6930  159.0329 O.2     1  UNL1       -0.2707
      3 C         140.0671  138.3555  160.2739 C.2     1  UNL1        0.2701
      4 N         141.5669  138.3550  160.2473 N.am    1  UNL1       -0.2663
      5 H         142.0735  138.1335  161.0618 H       1  UNL1        0.1564
      6 C         142.2947  138.6920  158.9798 C.ar    1  UNL1        0.1343
      7 C         142.4228  137.6660  157.8930 C.ar    1  UNL1        0.0354
      8 C         143.1505  138.0030  156.6255 C.ar    1  UNL1        0.0158
      9 C         143.7503  139.3660  156.4446 C.ar    1  UNL1        0.0769
     10 CL        144.4781  139.7030  155.1771 Cl      1  UNL1       -0.0806
     11 C         143.6222  140.3919  157.5313 C.ar    1  UNL1        0.1116
     12 N         142.8943  140.0549  158.7990 N.ar    1  UNL1       -0.2281
     13 C         137.8996  138.4060  161.7055 C.3     1  UNL1        0.1952
     14 O         137.3774  139.6479  161.0459 O.3     1  UNL1       -0.3467
     15 C         137.8031  140.9973  161.5439 C.3     1  UNL1        0.1740
     16 C         138.1363  141.1909  162.9935 C.3     1  UNL1        0.1692
     17 O         137.0389  141.4064  163.9930 O.3     1  UNL1       -0.3794
     18 H         136.5992  142.2521  163.8132 H       1  UNL1        0.2105
     19 O         140.0514  137.2939  162.6451 O.3     1  UNL1       -0.4517
     20 C         140.7891  138.0683  163.6969 C.ar    1  UNL1        0.2312
     21 N         142.2549  138.3430  163.5361 N.ar    1  UNL1       -0.1892
     22 C         142.9926  139.1173  164.5878 C.ar    1  UNL1        0.2029
     23 N         142.2645  139.6169  165.8004 N.ar    1  UNL1       -0.2045
     24 C         140.7987  139.3421  165.9612 C.ar    1  UNL1        0.1732
     25 C         140.0610  138.5678  164.9095 C.ar    1  UNL1        0.1099
     26 C         138.6283  138.4519  165.3385 C.ar    1  UNL1        0.1283
     27 N         138.4806  139.1547  166.6555 N.ar    1  UNL1       -0.1606
     28 N         139.8219  139.7048  167.0403 N.ar    1  UNL1       -0.1936
     29 C         140.1321  140.4814  168.2856 C.ar    1  UNL1        0.1759
     30 N         140.1759  139.7841  169.6129 N.ar    1  UNL1       -0.2242
     31 C         140.4861  140.5607  170.8582 C.ar    1  UNL1        0.1006
     32 C         140.7525  142.0345  170.7762 C.ar    1  UNL1        0.0217
     33 C         140.7088  142.7318  169.4488 C.ar    1  UNL1        0.0161
     34 C         140.3986  141.9552  168.2035 C.ar    1  UNL1        0.0935
     35 CL        140.3549  142.6526  166.8762 Cl      1  UNL1       -0.0790
@<TRIPOS>BOND
     1     2     3    2
     2     3     4   am
     3     4     6    1
     4     6     7   ar
     5     7     8   ar
     6     8     9   ar
     7     9    10    1
     8     9    11   ar
     9    11    12   ar
    10     3     1    1
    11     1    13    1
    12    13    14    1
    13    14    15    1
    14    15    16    1
    15    16    17    1
    16     1    19    1
    17    19    20    1
    18    20    21   ar
    19    21    22   ar
    20    22    23   ar
    21    23    24   ar
    22    24    25   ar
    23    25    26   ar
    24    26    27   ar
    25    27    28   ar
    26    28    29    1
    27    29    30   ar
    28    30    31   ar
    29    31    32   ar
    30    32    33   ar
    31    33    34   ar
    32    34    35    1
    33    12     6   ar
    34    25    20   ar
    35    34    29   ar
    36    28    24   ar
    37     4     5    1
    38    17    18    1
@<TRIPOS>MOLECULE
*****
 35 38 0 0 0
SMALL
GASTEIGER

@<TRIPOS>ATOM
      1 C         141.4543  138.9792  158.7953 C.3     1  UNL1        0.2722
      2 O         140.1917  137.4141  157.1502 O.2     1  UNL1       -0.2707
      3 C         141.4646  137.8395  157.8200 C.2     1  UNL1        0.2701
      4 N         142.7478  137.1253  157.5146 N.am    1  UNL1       -0.2663
      5 H         143.5833  137.4045  157.9542 H       1  UNL1        0.1564
      6 C         142.7581  135.9857  156.5393 C.ar    1  UNL1        0.1343
      7 C         142.9952  134.5861  157.0238 C.ar    1  UNL1        0.0354
      8 C         143.0055  133.4465  156.0485 C.ar    1  UNL1        0.0158
      9 C         142.7787  133.7065  154.5887 C.ar    1  UNL1        0.0769
     10 CL        142.7890  132.5669  153.6134 Cl      1  UNL1       -0.0806
     11 C         142.5416  135.1062  154.1042 C.ar    1  UNL1        0.1116
     12 N         142.5313  136.2458  155.0796 N.ar    1  UNL1       -0.2281
     13 C         142.6059  139.9393  158.8390 C.3     1  UNL1        0.1952
     14 O         143.9509  139.4763  159.3150 O.3     1  UNL1       -0.3467
     15 C         144.2046  139.2916  160.7819 C.3     1  UNL1        0.1740
     16 C         143.9605  137.9577  161.4231 C.3     1  UNL1        0.1692
     17 O         143.2846  136.8656  160.6483 O.3     1  UNL1       -0.3794
     18 H         142.3694  137.1236  160.4570 H       1  UNL1        0.2105
     19 O         140.2925  139.1586  159.7269 O.3     1  UNL1       -0.4517
     20 C         140.4863  139.0026  161.2062 C.ar    1  UNL1        0.2312
     21 N         140.4047  137.6427  161.8340 N.ar    1  UNL1       -0.1892
     22 C         140.5985  137.4868  163.3132 C.ar    1  UNL1        0.2029
     23 N         140.8738  138.6907  164.1646 N.ar    1  UNL1       -0.2045
     24 C         140.9553  140.0505  163.5368 C.ar    1  UNL1        0.1732
     25 C         140.7615  140.2065  162.0576 C.ar    1  UNL1        0.1099
     26 C         140.8976  141.6624  161.7232 C.ar    1  UNL1        0.1283
     27 N         141.1754  142.4062  162.9958 N.ar    1  UNL1       -0.1606
     28 N         141.2111  141.4100  164.1167 N.ar    1  UNL1       -0.1936
     29 C         141.4590  141.7191  165.5634 C.ar    1  UNL1        0.1759
     30 N         140.3049  141.8310  166.5149 N.ar    1  UNL1       -0.2242
     31 C         140.5529  142.1401  167.9616 C.ar    1  UNL1        0.1006
     32 C         141.9550  142.3371  168.4569 C.ar    1  UNL1        0.0217
     33 C         143.1091  142.2251  167.5054 C.ar    1  UNL1        0.0161
     34 C         142.8612  141.9161  166.0586 C.ar    1  UNL1        0.0935
     35 CL        144.0153  141.8041  165.1072 Cl      1  UNL1       -0.0790
@<TRIPOS>BOND
     1     2     3    2
     2     3     4   am
     3     4     6    1
     4     6     7   ar
     5     7     8   ar
     6     8     9   ar
     7     9    10    1
     8     9    11   ar
     9    11    12   ar
    10     3     1    1
    11     1    13    1
    12    13    14    1
    13    14    15    1
    14    15    16    1
    15    16    17    1
    16     1    19    1
    17    19    20    1
    18    20    21   ar
    19    21    22   ar
    20    22    23   ar
    21    23    24   ar
    22    24    25   ar
    23    25    26   ar
    24    26    27   ar
    25    27    28   ar
    26    28    29    1
    27    29    30   ar
    28    30    31   ar
    29    31    32   ar
    30    32    33   ar
    31    33    34   ar
    32    34    35    1
    33    12     6   ar
    34    25    20   ar
    35    34    29   ar
    36    28    24   ar
    37     4     5    1
    38    17    18    1
@<TRIPOS>MOLECULE
*****
 35 38 0 0 0
SMALL
GASTEIGER

@<TRIPOS>ATOM
      1 C         142.5259  139.8307  166.6738 C.3     1  UNL1        0.2722
      2 O         143.3587  141.9761  165.4681 O.2     1  UNL1       -0.2707
      3 C         142.2426  141.0462  165.8417 C.2     1  UNL1        0.2701
      4 N         140.8432  141.3316  165.3831 N.am    1  UNL1       -0.2663
      5 H         140.1107  140.7212  165.6283 H       1  UNL1        0.1564
      6 C         140.5599  142.5470  164.5510 C.ar    1  UNL1        0.1343
      7 C         139.8634  143.7275  165.1604 C.ar    1  UNL1        0.0354
      8 C         139.5801  144.9429  164.3283 C.ar    1  UNL1        0.0158
      9 C         139.9932  144.9779  162.8867 C.ar    1  UNL1        0.0769
     10 CL        139.7099  146.1933  162.0546 Cl      1  UNL1       -0.0806
     11 C         140.6897  143.7974  162.2773 C.ar    1  UNL1        0.1116
     12 N         140.9730  142.5819  163.1095 N.ar    1  UNL1       -0.2281
     13 C         142.6362  139.9516  168.1649 C.3     1  UNL1        0.1952
     14 O         141.4491  139.6520  169.0315 O.3     1  UNL1       -0.3467
     15 C         141.1766  140.4893  170.2459 C.3     1  UNL1        0.1740
     16 C         141.9981  141.7161  170.5107 C.3     1  UNL1        0.1692
     17 O         142.1553  142.2253  171.9128 O.3     1  UNL1       -0.3794
     18 H         141.2962  142.5305  172.2442 H       1  UNL1        0.2105
     19 O         142.6990  138.4943  166.0149 O.3     1  UNL1       -0.4517
     20 C         141.9903  138.1958  164.7270 C.ar    1  UNL1        0.2312
     21 N         140.6189  137.5886  164.7488 N.ar    1  UNL1       -0.1892
     22 C         139.9103  137.2901  163.4609 C.ar    1  UNL1        0.2029
     23 N         140.5731  137.5988  162.1512 N.ar    1  UNL1       -0.2045
     24 C         141.9445  138.2060  162.1293 C.ar    1  UNL1        0.1732
     25 C         142.6531  138.5045  163.4172 C.ar    1  UNL1        0.1099
     26 C         143.9891  139.0997  163.0841 C.ar    1  UNL1        0.1283
     27 N         144.1062  139.1690  161.5903 N.ar    1  UNL1       -0.1606
     28 N         142.8425  138.6167  161.0002 N.ar    1  UNL1       -0.1936
     29 C         142.5315  138.4962  159.5378 C.ar    1  UNL1        0.1759
     30 N         143.0527  137.3284  158.7539 N.ar    1  UNL1       -0.2242
     31 C         142.7417  137.2079  157.2914 C.ar    1  UNL1        0.1006
     32 C         141.9094  138.2552  156.6129 C.ar    1  UNL1        0.0217
     33 C         141.3882  139.4230  157.3968 C.ar    1  UNL1        0.0161
     34 C         141.6992  139.5435  158.8592 C.ar    1  UNL1        0.0935
     35 CL        141.1779  140.7113  159.6431 Cl      1  UNL1       -0.0790
@<TRIPOS>BOND
     1     2     3    2
     2     3     4   am
     3     4     6    1
     4     6     7   ar
     5     7     8   ar
     6     8     9   ar
     7     9    10    1
     8     9    11   ar
     9    11    12   ar
    10     3     1    1
    11     1    13    1
    12    13    14    1
    13    14    15    1
    14    15    16    1
    15    16    17    1
    16     1    19    1
    17    19    20    1
    18    20    21   ar
    19    21    22   ar
    20    22    23   ar
    21    23    24   ar
    22    24    25   ar
    23    25    26   ar
    24    26    27   ar
    25    27    28   ar
    26    28    29    1
    27    29    30   ar
    28    30    31   ar
    29    31    32   ar
    30    32    33   ar
    31    33    34   ar
    32    34    35    1
    33    12     6   ar
    34    25    20   ar
    35    34    29   ar
    36    28    24   ar
    37     4     5    1
    38    17    18    1
@<TRIPOS>MOLECULE
*****
 35 38 0 0 0
SMALL
GASTEIGER

@<TRIPOS>ATOM
      1 C         139.2371  139.0254  162.6417 C.3     1  UNL1        0.2722
      2 O         138.9621  137.9613  164.9959 O.2     1  UNL1       -0.2707
      3 C         139.5729  139.0008  164.1035 C.2     1  UNL1        0.2701
      4 N         140.5194  140.0157  164.6728 N.am    1  UNL1       -0.2663
      5 H         140.9203  140.6979  164.0871 H       1  UNL1        0.1564
      6 C         140.8551  139.9911  166.1345 C.ar    1  UNL1        0.1343
      7 C         142.1974  139.4981  166.5876 C.ar    1  UNL1        0.0354
      8 C         142.5332  139.4736  168.0493 C.ar    1  UNL1        0.0158
      9 C         141.5266  139.9420  169.0580 C.ar    1  UNL1        0.0769
     10 CL        141.8623  139.9174  170.5197 Cl      1  UNL1       -0.0806
     11 C         140.1843  140.4349  168.6050 C.ar    1  UNL1        0.1116
     12 N         139.8486  140.4595  167.1432 N.ar    1  UNL1       -0.2281
     13 C         138.2514  140.0260  162.1154 C.3     1  UNL1        0.1952
     14 O         137.2888  140.6945  163.0516 O.3     1  UNL1       -0.3467
     15 C         137.5702  142.0799  163.5532 C.3     1  UNL1        0.1740
     16 C         138.1192  143.1183  162.6203 C.3     1  UNL1        0.1692
     17 O         137.4360  144.4474  162.4917 O.3     1  UNL1       -0.3794
     18 H         136.5584  144.3231  162.0978 H       1  UNL1        0.2105
     19 O         139.8872  138.0494  161.7064 O.3     1  UNL1       -0.4517
     20 C         141.2962  138.2774  161.2450 C.ar    1  UNL1        0.2312
     21 N         142.4435  137.7230  162.0363 N.ar    1  UNL1       -0.1892
     22 C         143.8524  137.9510  161.5748 C.ar    1  UNL1        0.2029
     23 N         144.1140  138.7335  160.3221 N.ar    1  UNL1       -0.2045
     24 C         142.9667  139.2879  159.5308 C.ar    1  UNL1        0.1732
     25 C         141.5578  139.0599  159.9923 C.ar    1  UNL1        0.1099
     26 C         140.6359  139.7236  159.0125 C.ar    1  UNL1        0.1283
     27 N         141.4752  140.3617  157.9455 N.ar    1  UNL1       -0.1606
     28 N         142.9157  140.0925  158.2659 N.ar    1  UNL1       -0.1936
     29 C         144.0976  140.5478  157.4624 C.ar    1  UNL1        0.1759
     30 N         144.5885  139.7175  156.3137 N.ar    1  UNL1       -0.2242
     31 C         145.7705  140.1728  155.5102 C.ar    1  UNL1        0.1006
     32 C         146.4615  141.4587  155.8554 C.ar    1  UNL1        0.0217
     33 C         145.9706  142.2890  157.0040 C.ar    1  UNL1        0.0161
     34 C         144.7887  141.8337  157.8075 C.ar    1  UNL1        0.0935
     35 CL        144.2978  142.6641  158.9562 Cl      1  UNL1       -0.0790
@<TRIPOS>BOND
     1     2     3    2
     2     3     4   am
     3     4     6    1
     4     6     7   ar
     5     7     8   ar
     6     8     9   ar
     7     9    10    1
     8     9    11   ar
     9    11    12   ar
    10     3     1    1
    11     1    13    1
    12    13    14    1
    13    14    15    1
    14    15    16    1
    15    16    17    1
    16     1    19    1
    17    19    20    1
    18    20    21   ar
    19    21    22   ar
    20    22    23   ar
    21    23    24   ar
    22    24    25   ar
    23    25    26   ar
    24    26    27   ar
    25    27    28   ar
    26    28    29    1
    27    29    30   ar
    28    30    31   ar
    29    31    32   ar
    30    32    33   ar
    31    33    34   ar
    32    34    35    1
    33    12     6   ar
    34    25    20   ar
    35    34    29   ar
    36    28    24   ar
    37     4     5    1
    38    17    18    1
