@<TRIPOS>MOLECULE
*****
 29 31 0 0 0
SMALL
GASTEIGER

@<TRIPOS>ATOM
      1 C         142.3156  135.7531  156.4305 C.ar    1  UNL1        0.0026
      2 C         141.0924  136.1420  155.6543 C.ar    1  UNL1        0.0184
      3 C         140.4595  137.4840  155.8748 C.ar    1  UNL1        0.1070
      4 C         141.0497  138.4369  156.8715 C.ar    1  UNL1        0.0371
      5 C         142.2729  138.0480  157.6477 C.ar    1  UNL1        0.1122
      6 C         142.9058  136.7060  157.4272 C.ar    1  UNL1        0.0188
      7 C         144.8473  130.3853  155.5486 C.3     1  UNL1        0.0310
      8 C         144.2143  131.7273  155.7691 C.ar    1  UNL1       -0.0218
      9 C         143.2667  132.2862  154.7495 C.ar    1  UNL1       -0.0043
     10 C         142.6338  133.6281  154.9700 C.ar    1  UNL1       -0.0003
     11 C         142.9485  134.4111  156.2100 C.ar    1  UNL1        0.0001
     12 C         143.8961  133.8522  157.2296 C.ar    1  UNL1       -0.0003
     13 C         144.5290  132.5103  157.0092 C.ar    1  UNL1       -0.0043
     14 S         139.2363  137.8729  155.0985 S.O2    1  UNL1        0.0105
     15 C         138.0132  138.2619  154.3222 C.3     1  UNL1        0.1816
     16 O         140.0499  138.8548  154.3086 O.2     1  UNL1       -0.1686
     17 O         138.4227  136.8910  155.8884 O.2     1  UNL1       -0.1686
     18 S         142.8632  139.0009  158.6445 S.O2    1  UNL1        0.0346
     19 O         143.8804  139.4320  157.6299 O.2     1  UNL1       -0.1637
     20 O         141.8459  138.5699  159.6590 O.2     1  UNL1       -0.1637
     21 C         143.4535  139.9539  159.6412 C.ar    1  UNL1        0.1599
     22 C         143.6830  141.4210  159.4293 C.ar    1  UNL1        0.1244
     23 N         144.2893  141.9809  160.6819 N.ar    1  UNL1       -0.2384
     24 C         144.4344  140.8598  161.6679 C.ar    1  UNL1        0.1052
     25 S         143.9178  139.6071  161.0247 S.2     1  UNL1       -0.0508
     26 C         144.9973  140.9718  163.0538 C.3     1  UNL1        0.1186
     27 N         146.2415  141.7738  163.2954 N.3     1  UNL1       -0.3157
     28 H         147.0299  141.3277  162.8265 H       1  UNL1        0.1192
     29 H         146.4253  141.8228  164.2975 H       1  UNL1        0.1192
@<TRIPOS>BOND
     1     7     8    1
     2     8     9   ar
     3     9    10   ar
     4    10    11   ar
     5    11     1    1
     6     1     2   ar
     7     2     3   ar
     8     3    14    1
     9    14    15    1
    10    14    16    2
    11    14    17    2
    12     3     4   ar
    13     4     5   ar
    14     5    18    1
    15    18    19    2
    16    18    20    2
    17    18    21    1
    18    21    22   ar
    19    22    23   ar
    20    23    24   ar
    21    24    26    1
    22    26    27    1
    23    24    25   ar
    24     5     6   ar
    25    11    12   ar
    26    12    13   ar
    27    13     8   ar
    28     6     1   ar
    29    25    21   ar
    30    27    28    1
    31    27    29    1
@<TRIPOS>MOLECULE
*****
 29 31 0 0 0
SMALL
GASTEIGER

@<TRIPOS>ATOM
      1 C         140.4169  141.3891  167.0520 C.ar    1  UNL1        0.0026
      2 C         139.6574  140.1282  167.3402 C.ar    1  UNL1        0.0184
      3 C         138.8246  139.4923  166.2668 C.ar    1  UNL1        0.1070
      4 C         138.7515  140.1172  164.9052 C.ar    1  UNL1        0.0371
      5 C         139.5111  141.3781  164.6170 C.ar    1  UNL1        0.1122
      6 C         140.3438  142.0141  165.6904 C.ar    1  UNL1        0.0188
      7 C         143.7478  143.9329  171.3455 C.3     1  UNL1        0.0310
      8 C         142.9151  143.2970  170.2721 C.ar    1  UNL1       -0.0218
      9 C         141.4552  143.6236  170.1631 C.ar    1  UNL1       -0.0043
     10 C         140.6225  142.9877  169.0897 C.ar    1  UNL1       -0.0003
     11 C         141.2496  142.0251  168.1254 C.ar    1  UNL1        0.0001
     12 C         142.7095  141.6984  168.2344 C.ar    1  UNL1       -0.0003
     13 C         143.5423  142.3344  169.3078 C.ar    1  UNL1       -0.0043
     14 S         138.0650  138.2313  166.5551 S.O2    1  UNL1        0.0105
     15 C         137.3055  136.9704  166.8435 C.3     1  UNL1        0.1816
     16 O         137.6890  138.7665  167.9050 O.2     1  UNL1       -0.1686
     17 O         138.4411  137.6961  165.2053 O.2     1  UNL1       -0.1686
     18 S         139.4379  142.0031  163.2553 S.O2    1  UNL1        0.0346
     19 O         138.2478  141.1508  162.9281 O.2     1  UNL1       -0.1637
     20 O         140.6281  142.8555  163.5826 O.2     1  UNL1       -0.1637
     21 C         139.3648  142.6281  161.8937 C.ar    1  UNL1        0.1599
     22 C         138.4345  142.2260  160.7879 C.ar    1  UNL1        0.1244
     23 N         138.7038  143.1143  159.6096 N.ar    1  UNL1       -0.2384
     24 C         139.8006  144.0654  159.9872 C.ar    1  UNL1        0.1052
     25 S         140.2091  143.7649  161.3988 S.2     1  UNL1       -0.0508
     26 C         140.3860  145.1300  159.1075 C.3     1  UNL1        0.1186
     27 N         141.7960  145.5925  159.3267 N.3     1  UNL1       -0.3157
     28 H         141.8634  146.0614  160.2301 H       1  UNL1        0.1192
     29 H         142.0597  146.2422  158.5859 H       1  UNL1        0.1192
@<TRIPOS>BOND
     1     7     8    1
     2     8     9   ar
     3     9    10   ar
     4    10    11   ar
     5    11     1    1
     6     1     2   ar
     7     2     3   ar
     8     3    14    1
     9    14    15    1
    10    14    16    2
    11    14    17    2
    12     3     4   ar
    13     4     5   ar
    14     5    18    1
    15    18    19    2
    16    18    20    2
    17    18    21    1
    18    21    22   ar
    19    22    23   ar
    20    23    24   ar
    21    24    26    1
    22    26    27    1
    23    24    25   ar
    24     5     6   ar
    25    11    12   ar
    26    12    13   ar
    27    13     8   ar
    28     6     1   ar
    29    25    21   ar
    30    27    28    1
    31    27    29    1
@<TRIPOS>MOLECULE
*****
 29 31 0 0 0
SMALL
GASTEIGER

@<TRIPOS>ATOM
      1 C         141.2487  139.1564  163.4139 C.ar    1  UNL1        0.0026
      2 C         142.4863  139.9116  163.7984 C.ar    1  UNL1        0.0184
      3 C         143.5327  140.2119  162.7665 C.ar    1  UNL1        0.1070
      4 C         143.3416  139.7569  161.3501 C.ar    1  UNL1        0.0371
      5 C         142.1040  139.0016  160.9655 C.ar    1  UNL1        0.1122
      6 C         141.0576  138.7014  161.9974 C.ar    1  UNL1        0.0188
      7 C         137.0631  137.9553  167.5416 C.3     1  UNL1        0.0310
      8 C         138.1095  138.2556  166.5096 C.ar    1  UNL1       -0.0218
      9 C         138.4637  137.2252  165.4788 C.ar    1  UNL1       -0.0043
     10 C         139.5101  137.5254  164.4469 C.ar    1  UNL1       -0.0003
     11 C         140.2023  138.8561  164.4458 C.ar    1  UNL1        0.0001
     12 C         139.8481  139.8865  165.4767 C.ar    1  UNL1       -0.0003
     13 C         138.8017  139.5863  166.5086 C.ar    1  UNL1       -0.0043
     14 S         144.7704  140.9672  163.1511 S.O2    1  UNL1        0.0105
     15 C         146.0080  141.7224  163.5357 C.3     1  UNL1        0.1816
     16 O         145.0256  139.9859  164.2565 O.2     1  UNL1       -0.1686
     17 O         144.5151  141.9484  162.0457 O.2     1  UNL1       -0.1686
     18 S         141.9128  138.5466  159.5490 S.O2    1  UNL1        0.0346
     19 O         143.3882  138.6720  159.3096 O.2     1  UNL1       -0.1637
     20 O         140.4374  138.4211  159.7884 O.2     1  UNL1       -0.1637
     21 C         141.7216  138.0915  158.1326 C.ar    1  UNL1        0.1599
     22 C         142.8128  137.7924  157.1478 C.ar    1  UNL1        0.1244
     23 N         142.1713  137.3717  155.8588 N.ar    1  UNL1       -0.2384
     24 C         140.6836  137.4109  156.0469 C.ar    1  UNL1        0.1052
     25 S         140.4057  137.8558  157.4522 S.2     1  UNL1       -0.0508
     26 C         139.6546  137.0658  155.0115 C.3     1  UNL1        0.1186
     27 N         138.1951  137.1951  155.3325 N.3     1  UNL1       -0.3157
     28 H         137.9445  136.5191  156.0541 H       1  UNL1        0.1192
     29 H         137.6451  137.0153  154.4925 H       1  UNL1        0.1192
@<TRIPOS>BOND
     1     7     8    1
     2     8     9   ar
     3     9    10   ar
     4    10    11   ar
     5    11     1    1
     6     1     2   ar
     7     2     3   ar
     8     3    14    1
     9    14    15    1
    10    14    16    2
    11    14    17    2
    12     3     4   ar
    13     4     5   ar
    14     5    18    1
    15    18    19    2
    16    18    20    2
    17    18    21    1
    18    21    22   ar
    19    22    23   ar
    20    23    24   ar
    21    24    26    1
    22    26    27    1
    23    24    25   ar
    24     5     6   ar
    25    11    12   ar
    26    12    13   ar
    27    13     8   ar
    28     6     1   ar
    29    25    21   ar
    30    27    28    1
    31    27    29    1
@<TRIPOS>MOLECULE
*****
 29 31 0 0 0
SMALL
GASTEIGER

@<TRIPOS>ATOM
      1 C         139.2134  146.7529  156.0151 C.ar    1  UNL1        0.0026
      2 C         138.4954  145.6472  155.2996 C.ar    1  UNL1        0.0184
      3 C         138.5356  144.2506  155.8452 C.ar    1  UNL1        0.1070
      4 C         139.2938  143.9595  157.1063 C.ar    1  UNL1        0.0371
      5 C         140.0118  145.0652  157.8217 C.ar    1  UNL1        0.1122
      6 C         139.9717  146.4618  157.2761 C.ar    1  UNL1        0.0188
      7 C         139.0527  152.3396  153.8327 C.3     1  UNL1        0.0310
      8 C         139.0929  150.9429  154.3783 C.ar    1  UNL1       -0.0218
      9 C         139.7352  149.8452  153.5830 C.ar    1  UNL1       -0.0043
     10 C         139.7754  148.4486  154.1286 C.ar    1  UNL1       -0.0003
     11 C         139.1732  148.1496  155.4695 C.ar    1  UNL1        0.0001
     12 C         138.5310  149.2472  156.2648 C.ar    1  UNL1       -0.0003
     13 C         138.4908  150.6439  155.7192 C.ar    1  UNL1       -0.0043
     14 S         137.8174  143.1449  155.1297 S.O2    1  UNL1        0.0105
     15 C         137.0993  142.0393  154.4142 C.3     1  UNL1        0.1816
     16 O         136.5176  143.8707  155.3128 O.2     1  UNL1       -0.1686
     17 O         139.1173  142.4191  154.9465 O.2     1  UNL1       -0.1686
     18 S         140.7701  144.7741  159.0829 S.O2    1  UNL1        0.0346
     19 O         139.5881  144.0231  159.6202 O.2     1  UNL1       -0.1637
     20 O         141.9521  145.5252  158.5455 O.2     1  UNL1       -0.1637
     21 C         141.5283  144.4831  160.3440 C.ar    1  UNL1        0.1599
     22 C         141.2289  145.0447  161.7022 C.ar    1  UNL1        0.1244
     23 N         142.2346  144.4881  162.6659 N.ar    1  UNL1       -0.2384
     24 C         143.1556  143.5824  161.9033 C.ar    1  UNL1        0.1052
     25 S         142.7190  143.5793  160.4682 S.2     1  UNL1       -0.0508
     26 C         144.3103  142.8146  162.4753 C.3     1  UNL1        0.1186
     27 N         145.4597  142.4224  161.5951 N.3     1  UNL1       -0.3157
     28 H         145.1392  141.7527  160.8956 H       1  UNL1        0.1192
     29 H         146.1927  141.9967  162.1626 H       1  UNL1        0.1192
@<TRIPOS>BOND
     1     7     8    1
     2     8     9   ar
     3     9    10   ar
     4    10    11   ar
     5    11     1    1
     6     1     2   ar
     7     2     3   ar
     8     3    14    1
     9    14    15    1
    10    14    16    2
    11    14    17    2
    12     3     4   ar
    13     4     5   ar
    14     5    18    1
    15    18    19    2
    16    18    20    2
    17    18    21    1
    18    21    22   ar
    19    22    23   ar
    20    23    24   ar
    21    24    26    1
    22    26    27    1
    23    24    25   ar
    24     5     6   ar
    25    11    12   ar
    26    12    13   ar
    27    13     8   ar
    28     6     1   ar
    29    25    21   ar
    30    27    28    1
    31    27    29    1
@<TRIPOS>MOLECULE
*****
 29 31 0 0 0
SMALL
GASTEIGER

@<TRIPOS>ATOM
      1 C         140.9558  141.2456  161.8816 C.ar    1  UNL1        0.0026
      2 C         140.6290  142.6542  161.4827 C.ar    1  UNL1        0.0184
      3 C         140.1935  143.6457  162.5206 C.ar    1  UNL1        0.1070
      4 C         140.0848  143.2287  163.9573 C.ar    1  UNL1        0.0371
      5 C         140.4116  141.8202  164.3562 C.ar    1  UNL1        0.1122
      6 C         140.8471  140.8286  163.3183 C.ar    1  UNL1        0.0188
      7 C         142.6976  137.2794  157.7301 C.3     1  UNL1        0.0310
      8 C         142.2622  138.2710  158.7679 C.ar    1  UNL1       -0.0218
      9 C         143.2861  138.9832  159.6011 C.ar    1  UNL1       -0.0043
     10 C         142.8507  139.9747  160.6390 C.ar    1  UNL1       -0.0003
     11 C         141.3912  140.2541  160.8437 C.ar    1  UNL1        0.0001
     12 C         140.3673  139.5419  160.0106 C.ar    1  UNL1       -0.0003
     13 C         140.8027  138.5503  158.9727 C.ar    1  UNL1       -0.0043
     14 S         139.8667  145.0544  162.1217 S.O2    1  UNL1        0.0105
     15 C         139.5400  146.4629  161.7227 C.3     1  UNL1        0.1816
     16 O         141.2987  145.2768  161.7344 O.2     1  UNL1       -0.1686
     17 O         138.4348  144.8319  162.5089 O.2     1  UNL1       -0.1686
     18 S         140.3029  141.4031  165.7930 S.O2    1  UNL1        0.0346
     19 O         139.3874  140.2824  165.3984 O.2     1  UNL1       -0.1637
     20 O         141.2185  142.5238  166.1876 O.2     1  UNL1       -0.1637
     21 C         140.1942  140.9860  167.2297 C.ar    1  UNL1        0.1599
     22 C         139.3001  139.9098  167.7701 C.ar    1  UNL1        0.1244
     23 N         139.5138  139.8305  169.2526 N.ar    1  UNL1       -0.2384
     24 C         140.5401  140.8579  169.6286 C.ar    1  UNL1        0.1052
     25 S         140.9606  141.5720  168.3783 S.2     1  UNL1       -0.0508
     26 C         141.0554  141.1243  171.0119 C.3     1  UNL1        0.1186
     27 N         140.4307  142.1992  171.8508 N.3     1  UNL1       -0.3157
     28 H         140.6075  143.1090  171.4247 H       1  UNL1        0.1192
     29 H         140.8350  142.1780  172.7870 H       1  UNL1        0.1192
@<TRIPOS>BOND
     1     7     8    1
     2     8     9   ar
     3     9    10   ar
     4    10    11   ar
     5    11     1    1
     6     1     2   ar
     7     2     3   ar
     8     3    14    1
     9    14    15    1
    10    14    16    2
    11    14    17    2
    12     3     4   ar
    13     4     5   ar
    14     5    18    1
    15    18    19    2
    16    18    20    2
    17    18    21    1
    18    21    22   ar
    19    22    23   ar
    20    23    24   ar
    21    24    26    1
    22    26    27    1
    23    24    25   ar
    24     5     6   ar
    25    11    12   ar
    26    12    13   ar
    27    13     8   ar
    28     6     1   ar
    29    25    21   ar
    30    27    28    1
    31    27    29    1
@<TRIPOS>MOLECULE
*****
 29 31 0 0 0
SMALL
GASTEIGER

@<TRIPOS>ATOM
      1 C         140.9822  140.3924  163.3229 C.ar    1  UNL1        0.0026
      2 C         141.5701  141.7304  163.6605 C.ar    1  UNL1        0.0184
      3 C         142.4980  142.4070  162.6955 C.ar    1  UNL1        0.1070
      4 C         142.8381  141.7455  161.3930 C.ar    1  UNL1        0.0371
      5 C         142.2503  140.4075  161.0554 C.ar    1  UNL1        0.1122
      6 C         141.3223  139.7309  162.0203 C.ar    1  UNL1        0.0188
      7 C         137.2703  137.6862  167.1828 C.3     1  UNL1        0.0310
      8 C         138.1983  138.3627  166.2178 C.ar    1  UNL1       -0.0218
      9 C         138.8919  137.5609  165.1568 C.ar    1  UNL1       -0.0043
     10 C         139.8199  138.2374  164.1918 C.ar    1  UNL1       -0.0003
     11 C         140.0542  139.7158  164.2879 C.ar    1  UNL1        0.0001
     12 C         139.3606  140.5177  165.3489 C.ar    1  UNL1       -0.0003
     13 C         138.4326  139.8412  166.3139 C.ar    1  UNL1       -0.0043
     14 S         143.0859  143.7451  163.0332 S.O2    1  UNL1        0.0105
     15 C         143.6738  145.0831  163.3709 C.3     1  UNL1        0.1816
     16 O         142.7657  143.5203  164.4813 O.2     1  UNL1       -0.1686
     17 O         143.4062  143.9699  161.5852 O.2     1  UNL1       -0.1686
     18 S         142.5903  139.7459  159.7527 S.O2    1  UNL1        0.0346
     19 O         144.0451  139.7766  160.1170 O.2     1  UNL1       -0.1637
     20 O         141.1356  139.7152  159.3885 O.2     1  UNL1       -0.1637
     21 C         142.9304  139.0844  158.4502 C.ar    1  UNL1        0.1599
     22 C         143.6828  139.7103  157.3135 C.ar    1  UNL1        0.1244
     23 N         143.7953  138.6936  156.2164 N.ar    1  UNL1       -0.2384
     24 C         143.1124  137.4392  156.6751 C.ar    1  UNL1        0.1052
     25 S         142.5779  137.6808  158.0556 S.2     1  UNL1       -0.0508
     26 C         142.9861  136.1668  155.8909 C.3     1  UNL1        0.1186
     27 N         143.1494  136.1854  154.4000 N.3     1  UNL1       -0.3157
     28 H         142.3884  136.7201  153.9812 H       1  UNL1        0.1192
     29 H         143.1295  135.2297  154.0439 H       1  UNL1        0.1192
@<TRIPOS>BOND
     1     7     8    1
     2     8     9   ar
     3     9    10   ar
     4    10    11   ar
     5    11     1    1
     6     1     2   ar
     7     2     3   ar
     8     3    14    1
     9    14    15    1
    10    14    16    2
    11    14    17    2
    12     3     4   ar
    13     4     5   ar
    14     5    18    1
    15    18    19    2
    16    18    20    2
    17    18    21    1
    18    21    22   ar
    19    22    23   ar
    20    23    24   ar
    21    24    26    1
    22    26    27    1
    23    24    25   ar
    24     5     6   ar
    25    11    12   ar
    26    12    13   ar
    27    13     8   ar
    28     6     1   ar
    29    25    21   ar
    30    27    28    1
    31    27    29    1
@<TRIPOS>MOLECULE
*****
 29 31 0 0 0
SMALL
GASTEIGER

@<TRIPOS>ATOM
      1 C         141.2033  141.2890  164.0999 C.ar    1  UNL1        0.0026
      2 C         140.7930  142.7110  163.8562 C.ar    1  UNL1        0.0184
      3 C         140.5569  143.1941  162.4559 C.ar    1  UNL1        0.1070
      4 C         140.7312  142.2551  161.2992 C.ar    1  UNL1        0.0371
      5 C         141.1415  140.8331  161.5429 C.ar    1  UNL1        0.1122
      6 C         141.3776  140.3500  162.9432 C.ar    1  UNL1        0.0188
      7 C         142.1476  139.3568  169.7012 C.3     1  UNL1        0.0310
      8 C         141.9115  139.8399  168.3009 C.ar    1  UNL1       -0.0218
      9 C         140.8716  140.8874  168.0342 C.ar    1  UNL1       -0.0043
     10 C         140.6356  141.3705  166.6338 C.ar    1  UNL1       -0.0003
     11 C         141.4394  140.8060  165.5002 C.ar    1  UNL1        0.0001
     12 C         142.4793  139.7584  165.7669 C.ar    1  UNL1       -0.0003
     13 C         142.7154  139.2754  167.1673 C.ar    1  UNL1       -0.0043
     14 S         140.1466  144.6162  162.2122 S.O2    1  UNL1        0.0105
     15 C         139.7363  146.0383  161.9686 C.3     1  UNL1        0.1816
     16 O         141.3183  145.0924  163.0185 O.2     1  UNL1       -0.1686
     17 O         138.9748  144.1400  161.4059 O.2     1  UNL1       -0.1686
     18 S         141.3158  139.8940  160.3862 S.O2    1  UNL1        0.0346
     19 O         140.1251  140.5062  159.7098 O.2     1  UNL1       -0.1637
     20 O         142.5064  139.2818  161.0626 O.2     1  UNL1       -0.1637
     21 C         141.4900  138.9550  159.2296 C.ar    1  UNL1        0.1599
     22 C         142.7579  138.2488  158.8505 C.ar    1  UNL1        0.1244
     23 N         142.4784  137.4147  157.6356 N.ar    1  UNL1       -0.2384
     24 C         141.0378  137.6054  157.2637 C.ar    1  UNL1        0.1052
     25 S         140.4269  138.5573  158.2489 S.2     1  UNL1       -0.0508
     26 C         140.3320  136.9578  156.1094 C.3     1  UNL1        0.1186
     27 N         138.8424  136.7849  156.1425 N.3     1  UNL1       -0.3157
     28 H         138.5924  136.1308  156.8841 H       1  UNL1        0.1192
     29 H         138.5224  136.4202  155.2453 H       1  UNL1        0.1192
@<TRIPOS>BOND
     1     7     8    1
     2     8     9   ar
     3     9    10   ar
     4    10    11   ar
     5    11     1    1
     6     1     2   ar
     7     2     3   ar
     8     3    14    1
     9    14    15    1
    10    14    16    2
    11    14    17    2
    12     3     4   ar
    13     4     5   ar
    14     5    18    1
    15    18    19    2
    16    18    20    2
    17    18    21    1
    18    21    22   ar
    19    22    23   ar
    20    23    24   ar
    21    24    26    1
    22    26    27    1
    23    24    25   ar
    24     5     6   ar
    25    11    12   ar
    26    12    13   ar
    27    13     8   ar
    28     6     1   ar
    29    25    21   ar
    30    27    28    1
    31    27    29    1
@<TRIPOS>MOLECULE
*****
 29 31 0 0 0
SMALL
GASTEIGER

@<TRIPOS>ATOM
      1 C         140.7921  141.8631  165.8666 C.ar    1  UNL1        0.0026
      2 C         140.3036  140.4662  165.6214 C.ar    1  UNL1        0.0184
      3 C         139.7595  140.0873  164.2759 C.ar    1  UNL1        0.1070
      4 C         139.7039  141.1052  163.1756 C.ar    1  UNL1        0.0371
      5 C         140.1925  142.5021  163.4208 C.ar    1  UNL1        0.1122
      6 C         140.7366  142.8810  164.7663 C.ar    1  UNL1        0.0188
      7 C         142.9686  143.3787  171.2486 C.3     1  UNL1        0.0310
      8 C         142.4245  142.9998  169.9031 C.ar    1  UNL1       -0.0218
      9 C         140.9879  143.2745  169.5705 C.ar    1  UNL1       -0.0043
     10 C         140.4438  142.8956  168.2251 C.ar    1  UNL1       -0.0003
     11 C         141.3363  142.2420  167.2121 C.ar    1  UNL1        0.0001
     12 C         142.7729  141.9672  167.5446 C.ar    1  UNL1       -0.0003
     13 C         143.3170  142.3461  168.8901 C.ar    1  UNL1       -0.0043
     14 S         139.2709  138.6904  164.0307 S.O2    1  UNL1        0.0105
     15 C         138.7823  137.2936  163.7856 C.3     1  UNL1        0.1816
     16 O         139.9540  138.6859  162.6954 O.2     1  UNL1       -0.1686
     17 O         138.5877  138.6950  165.3661 O.2     1  UNL1       -0.1686
     18 S         140.1369  143.5201  162.3204 S.O2    1  UNL1        0.0346
     19 O         138.8302  142.9477  161.8569 O.2     1  UNL1       -0.1637
     20 O         141.4436  144.0924  162.7839 O.2     1  UNL1       -0.1637
     21 C         140.0814  144.5380  161.2201 C.ar    1  UNL1        0.1599
     22 C         139.6912  145.9785  161.3706 C.ar    1  UNL1        0.1244
     23 N         139.7749  146.6249  160.0197 N.ar    1  UNL1       -0.2384
     24 C         140.2168  145.5839  159.0342 C.ar    1  UNL1        0.1052
     25 S         140.4062  144.2941  159.7762 S.2     1  UNL1       -0.0508
     26 C         140.4316  145.7956  157.5648 C.3     1  UNL1        0.1186
     27 N         139.8338  146.9910  156.8840 N.3     1  UNL1       -0.3157
     28 H         138.8166  146.9174  156.8989 H       1  UNL1        0.1192
     29 H         140.1578  147.0292  155.9176 H       1  UNL1        0.1192
@<TRIPOS>BOND
     1     7     8    1
     2     8     9   ar
     3     9    10   ar
     4    10    11   ar
     5    11     1    1
     6     1     2   ar
     7     2     3   ar
     8     3    14    1
     9    14    15    1
    10    14    16    2
    11    14    17    2
    12     3     4   ar
    13     4     5   ar
    14     5    18    1
    15    18    19    2
    16    18    20    2
    17    18    21    1
    18    21    22   ar
    19    22    23   ar
    20    23    24   ar
    21    24    26    1
    22    26    27    1
    23    24    25   ar
    24     5     6   ar
    25    11    12   ar
    26    12    13   ar
    27    13     8   ar
    28     6     1   ar
    29    25    21   ar
    30    27    28    1
    31    27    29    1
@<TRIPOS>MOLECULE
*****
 29 31 0 0 0
SMALL
GASTEIGER

@<TRIPOS>ATOM
      1 C         142.7677  141.8982  162.2210 C.ar    1  UNL1        0.0026
      2 C         141.8009  143.0243  162.4385 C.ar    1  UNL1        0.0184
      3 C         141.5347  144.0074  161.3373 C.ar    1  UNL1        0.1070
      4 C         142.2351  143.8644  160.0186 C.ar    1  UNL1        0.0371
      5 C         143.2018  142.7383  159.8012 C.ar    1  UNL1        0.1122
      6 C         143.4681  141.7552  160.9024 C.ar    1  UNL1        0.0188
      7 C         143.8329  137.9658  166.6258 C.3     1  UNL1        0.0310
      8 C         143.5666  138.9489  165.5246 C.ar    1  UNL1       -0.0218
      9 C         144.6538  139.2985  164.5522 C.ar    1  UNL1       -0.0043
     10 C         144.3875  140.2816  163.4510 C.ar    1  UNL1       -0.0003
     11 C         143.0340  140.9151  163.3222 C.ar    1  UNL1        0.0001
     12 C         141.9467  140.5655  164.2946 C.ar    1  UNL1       -0.0003
     13 C         142.2130  139.5824  165.3958 C.ar    1  UNL1       -0.0043
     14 S         140.5679  145.1335  161.5548 S.O2    1  UNL1        0.0105
     15 C         139.6012  146.2596  161.7724 C.3     1  UNL1        0.1816
     16 O         141.3110  145.5317  162.7954 O.2     1  UNL1       -0.1686
     17 O         139.8248  144.7352  160.3142 O.2     1  UNL1       -0.1686
     18 S         143.9023  142.5952  158.4825 S.O2    1  UNL1        0.0346
     19 O         142.5800  142.6379  157.7755 O.2     1  UNL1       -0.1637
     20 O         145.2245  142.5526  159.1894 O.2     1  UNL1       -0.1637
     21 C         144.6027  142.4522  157.1638 C.ar    1  UNL1        0.1599
     22 C         143.9443  142.3979  155.8171 C.ar    1  UNL1        0.1244
     23 N         145.0191  142.2505  154.7813 N.ar    1  UNL1       -0.2384
     24 C         146.3419  142.2137  155.4878 C.ar    1  UNL1        0.1052
     25 S         146.0845  142.3383  156.9602 S.2     1  UNL1       -0.0508
     26 C         147.6859  142.0763  154.8362 C.3     1  UNL1        0.1186
     27 N         148.8211  141.4430  155.5847 N.3     1  UNL1       -0.3157
     28 H         149.0754  142.0313  156.3781 H       1  UNL1        0.1192
     29 H         149.6242  141.3436  154.9638 H       1  UNL1        0.1192
@<TRIPOS>BOND
     1     7     8    1
     2     8     9   ar
     3     9    10   ar
     4    10    11   ar
     5    11     1    1
     6     1     2   ar
     7     2     3   ar
     8     3    14    1
     9    14    15    1
    10    14    16    2
    11    14    17    2
    12     3     4   ar
    13     4     5   ar
    14     5    18    1
    15    18    19    2
    16    18    20    2
    17    18    21    1
    18    21    22   ar
    19    22    23   ar
    20    23    24   ar
    21    24    26    1
    22    26    27    1
    23    24    25   ar
    24     5     6   ar
    25    11    12   ar
    26    12    13   ar
    27    13     8   ar
    28     6     1   ar
    29    25    21   ar
    30    27    28    1
    31    27    29    1
