@<TRIPOS>MOLECULE
*****
 32 36 0 0 0
SMALL
GASTEIGER

@<TRIPOS>ATOM
      1 C         138.7656  137.7099  162.9347 C.3     1  UNL1        0.0731
      2 N         139.8215  138.0541  163.9430 N.3     1  UNL1       -0.2712
      3 C         141.2362  137.5555  163.9434 C.3     1  UNL1        0.0738
      4 C         141.9370  138.1507  165.1286 C.3     1  UNL1        0.0372
      5 C         143.2445  138.2104  165.8613 C.3     1  UNL1        0.0245
      6 C         143.0711  139.1136  167.0463 C.3     1  UNL1        0.0909
      7 N         141.6563  139.6122  167.0458 N.pl3   1  UNL1       -0.3060
      8 C         140.9555  139.0170  165.8606 C.3     1  UNL1        0.0901
      9 C         139.6480  138.9574  165.1279 C.3     1  UNL1        0.0921
     10 C         141.0490  140.5425  168.0536 C.ar    1  UNL1        0.0758
     11 C         139.9590  140.0562  168.9621 C.ar    1  UNL1        0.0191
     12 C         139.3518  140.9865  169.9699 C.ar    1  UNL1        0.0311
     13 C         139.8345  142.4032  170.0693 C.ar    1  UNL1        0.1425
     14 F         139.2272  143.3335  171.0771 F       1  UNL1       -0.2041
     15 C         140.9245  142.8896  169.1608 C.ar    1  UNL1        0.0605
     16 C         141.5318  141.9593  168.1530 C.ar    1  UNL1        0.1556
     17 F         142.6218  142.4456  167.2445 F       1  UNL1       -0.2028
     18 C         138.8629  138.2417  161.5355 C.3     1  UNL1        0.0294
     19 C         137.8027  139.1623  161.0076 C.3     1  UNL1        0.0666
     20 S         138.0246  140.6457  161.0176 S.3     1  UNL1       -0.0756
     21 C         141.2579  141.0859  161.0525 C.3     1  UNL1        0.1340
     22 N         140.3026  141.4804  162.1396 N.ar    1  UNL1       -0.2872
     23 C         138.8164  141.2781  162.1236 C.ar    1  UNL1        0.1933
     24 N         138.2610  141.8191  163.4076 N.ar    1  UNL1       -0.1221
     25 N         139.4040  142.3559  164.2173 N.ar    1  UNL1       -0.1266
     26 C         140.6658  142.1466  163.4337 C.ar    1  UNL1        0.1862
     27 C         142.0480  142.5352  163.8678 C.ar    1  UNL1        0.1362
     28 C         143.0704  141.4752  164.1529 C.ar    1  UNL1        0.1211
     29 N         144.4526  141.8638  164.5871 N.ar    1  UNL1       -0.2390
     30 C         144.8124  143.3124  164.7360 C.ar    1  UNL1        0.1195
     31 C         143.7901  144.3724  164.4509 C.ar    1  UNL1        0.1196
     32 N         142.4078  143.9837  164.0167 N.ar    1  UNL1       -0.2375
@<TRIPOS>BOND
     1    21    22    1
     2    22    23   ar
     3    23    20    1
     4    20    19    1
     5    19    18    1
     6    18     1    1
     7     1     2    1
     8     2     3    1
     9     3     4    1
    10     4     5    1
    11     5     6    1
    12     6     7    1
    13     7    10    1
    14    10    11   ar
    15    11    12   ar
    16    12    13   ar
    17    13    14    1
    18    13    15   ar
    19    15    16   ar
    20    16    17    1
    21     7     8    1
    22     8     9    1
    23    23    24   ar
    24    24    25   ar
    25    25    26   ar
    26    26    27    1
    27    27    28   ar
    28    28    29   ar
    29    29    30   ar
    30    30    31   ar
    31    31    32   ar
    32    26    22   ar
    33    32    27   ar
    34     9     2    1
    35     8     4    1
    36    16    10   ar
@<TRIPOS>MOLECULE
*****
 32 36 0 0 0
SMALL
GASTEIGER

@<TRIPOS>ATOM
      1 C         142.0253  137.6367  162.6523 C.3     1  UNL1        0.0731
      2 N         142.6839  138.9841  162.6812 N.3     1  UNL1       -0.2712
      3 C         144.1280  139.2534  162.9847 C.3     1  UNL1        0.0738
      4 C         144.3505  140.7345  162.9027 C.3     1  UNL1        0.0372
      5 C         145.3805  141.8163  163.0396 C.3     1  UNL1        0.0245
      6 C         144.7106  143.1311  162.7700 C.3     1  UNL1        0.0909
      7 N         143.2665  142.8618  162.4664 N.pl3   1  UNL1       -0.3060
      8 C         143.0440  141.3807  162.5485 C.3     1  UNL1        0.0901
      9 C         142.0139  140.2989  162.4115 C.3     1  UNL1        0.0921
     10 C         142.2274  143.8927  162.1384 C.ar    1  UNL1        0.0758
     11 C         141.8774  144.1759  160.7076 C.ar    1  UNL1        0.0191
     12 C         140.8383  145.2068  160.3796 C.ar    1  UNL1        0.0311
     13 C         140.1492  145.9544  161.4824 C.ar    1  UNL1        0.1425
     14 F         139.1101  146.9853  161.1544 F       1  UNL1       -0.2041
     15 C         140.4992  145.6712  162.9133 C.ar    1  UNL1        0.0605
     16 C         141.5383  144.6403  163.2413 C.ar    1  UNL1        0.1556
     17 F         141.8883  144.3570  164.6721 F       1  UNL1       -0.2028
     18 C         140.5289  137.5332  162.6510 C.3     1  UNL1        0.0294
     19 C         139.7841  137.4147  163.9476 C.3     1  UNL1        0.0666
     20 S         138.8445  138.5030  164.3751 S.3     1  UNL1       -0.0756
     21 C         140.9261  140.4185  166.0021 C.3     1  UNL1        0.1340
     22 N         139.7025  139.7631  166.5707 N.ar    1  UNL1       -0.2872
     23 C         138.7457  138.8827  165.8229 C.ar    1  UNL1        0.1933
     24 N         137.6728  138.4485  166.7769 N.ar    1  UNL1       -0.1221
     25 N         137.9664  139.0606  168.1145 N.ar    1  UNL1       -0.1266
     26 C         139.2209  139.8732  167.9871 C.ar    1  UNL1        0.1862
     27 C         139.8783  140.6579  169.0835 C.ar    1  UNL1        0.1362
     28 C         140.0734  140.0387  170.4358 C.ar    1  UNL1        0.1211
     29 N         140.7308  140.8235  171.5322 N.ar    1  UNL1       -0.2390
     30 C         141.1930  142.2274  171.2762 C.ar    1  UNL1        0.1195
     31 C         140.9979  142.8465  169.9239 C.ar    1  UNL1        0.1196
     32 N         140.3405  142.0617  168.8276 N.ar    1  UNL1       -0.2375
@<TRIPOS>BOND
     1    21    22    1
     2    22    23   ar
     3    23    20    1
     4    20    19    1
     5    19    18    1
     6    18     1    1
     7     1     2    1
     8     2     3    1
     9     3     4    1
    10     4     5    1
    11     5     6    1
    12     6     7    1
    13     7    10    1
    14    10    11   ar
    15    11    12   ar
    16    12    13   ar
    17    13    14    1
    18    13    15   ar
    19    15    16   ar
    20    16    17    1
    21     7     8    1
    22     8     9    1
    23    23    24   ar
    24    24    25   ar
    25    25    26   ar
    26    26    27    1
    27    27    28   ar
    28    28    29   ar
    29    29    30   ar
    30    30    31   ar
    31    31    32   ar
    32    26    22   ar
    33    32    27   ar
    34     9     2    1
    35     8     4    1
    36    16    10   ar
@<TRIPOS>MOLECULE
*****
 32 36 0 0 0
SMALL
GASTEIGER

@<TRIPOS>ATOM
      1 C         142.6060  137.8082  161.9391 C.3     1  UNL1        0.0731
      2 N         141.6680  138.0984  163.0731 N.3     1  UNL1       -0.2712
      3 C         140.2878  137.5357  163.2417 C.3     1  UNL1        0.0738
      4 C         139.7123  138.0918  164.5104 C.3     1  UNL1        0.0372
      5 C         138.5037  138.0877  165.3987 C.3     1  UNL1        0.0245
      6 C         138.7811  138.9916  166.5632 C.3     1  UNL1        0.0909
      7 N         140.1614  139.5543  166.3946 N.pl3   1  UNL1       -0.3060
      8 C         140.7369  138.9982  165.1259 C.3     1  UNL1        0.0901
      9 C         141.9455  139.0022  164.2376 C.3     1  UNL1        0.0921
     10 C         140.8459  140.5060  167.3303 C.ar    1  UNL1        0.0758
     11 C         140.2391  141.8487  167.6108 C.ar    1  UNL1        0.0191
     12 C         140.9236  142.8004  168.5466 C.ar    1  UNL1        0.0311
     13 C         142.2150  142.4094  169.2019 C.ar    1  UNL1        0.1425
     14 F         142.8995  143.3611  170.1377 F       1  UNL1       -0.2041
     15 C         142.8219  141.0666  168.9214 C.ar    1  UNL1        0.0605
     16 C         142.1374  140.1149  167.9856 C.ar    1  UNL1        0.1556
     17 F         142.7442  138.7721  167.7051 F       1  UNL1       -0.2028
     18 C         143.8980  138.5613  161.8230 C.3     1  UNL1        0.0294
     19 C         144.1241  139.4891  160.6662 C.3     1  UNL1        0.0666
     20 S         144.2455  140.9655  160.9016 S.3     1  UNL1       -0.0756
     21 C         141.0725  141.7152  161.0420 C.3     1  UNL1        0.1340
     22 N         142.0817  141.9448  162.1278 N.ar    1  UNL1       -0.2872
     23 C         143.5401  141.6002  162.0633 C.ar    1  UNL1        0.1933
     24 N         144.1694  142.0017  163.3643 N.ar    1  UNL1       -0.1221
     25 N         143.0998  142.5945  164.2330 N.ar    1  UNL1       -0.1266
     26 C         141.8095  142.5593  163.4689 C.ar    1  UNL1        0.1862
     27 C         140.4804  143.0522  163.9596 C.ar    1  UNL1        0.1362
     28 C         140.3162  144.4864  164.3669 C.ar    1  UNL1        0.1211
     29 N         138.9871  144.9792  164.8576 N.ar    1  UNL1       -0.2390
     30 C         137.8223  144.0377  164.9409 C.ar    1  UNL1        0.1195
     31 C         137.9866  142.6034  164.5335 C.ar    1  UNL1        0.1196
     32 N         139.3157  142.1107  164.0428 N.ar    1  UNL1       -0.2375
@<TRIPOS>BOND
     1    21    22    1
     2    22    23   ar
     3    23    20    1
     4    20    19    1
     5    19    18    1
     6    18     1    1
     7     1     2    1
     8     2     3    1
     9     3     4    1
    10     4     5    1
    11     5     6    1
    12     6     7    1
    13     7    10    1
    14    10    11   ar
    15    11    12   ar
    16    12    13   ar
    17    13    14    1
    18    13    15   ar
    19    15    16   ar
    20    16    17    1
    21     7     8    1
    22     8     9    1
    23    23    24   ar
    24    24    25   ar
    25    25    26   ar
    26    26    27    1
    27    27    28   ar
    28    28    29   ar
    29    29    30   ar
    30    30    31   ar
    31    31    32   ar
    32    26    22   ar
    33    32    27   ar
    34     9     2    1
    35     8     4    1
    36    16    10   ar
@<TRIPOS>MOLECULE
*****
 32 36 0 0 0
SMALL
GASTEIGER

@<TRIPOS>ATOM
      1 C         137.7721  143.4003  162.7761 C.3     1  UNL1        0.0731
      2 N         138.1993  142.0727  163.3285 N.3     1  UNL1       -0.2712
      3 C         137.9942  140.7384  162.6746 C.3     1  UNL1        0.0738
      4 C         138.5747  139.6875  163.5738 C.3     1  UNL1        0.0372
      5 C         138.8068  138.2133  163.7255 C.3     1  UNL1        0.0245
      6 C         139.5140  137.9870  165.0288 C.3     1  UNL1        0.0909
      7 N         139.7191  139.3214  165.6827 N.pl3   1  UNL1       -0.3060
      8 C         139.1386  140.3723  164.7835 C.3     1  UNL1        0.0901
      9 C         138.9065  141.8465  164.6318 C.3     1  UNL1        0.0921
     10 C         140.3873  139.5625  167.0038 C.ar    1  UNL1        0.0758
     11 C         139.5649  139.9209  168.2059 C.ar    1  UNL1        0.0191
     12 C         140.2331  140.1620  169.5270 C.ar    1  UNL1        0.0311
     13 C         141.7237  140.0446  169.6461 C.ar    1  UNL1        0.1425
     14 F         142.3919  140.2857  170.9672 F       1  UNL1       -0.2041
     15 C         142.5462  139.6861  168.4439 C.ar    1  UNL1        0.0605
     16 C         141.8780  139.4451  167.1228 C.ar    1  UNL1        0.1556
     17 F         142.7004  139.0866  165.9207 F       1  UNL1       -0.2028
     18 C         138.4502  144.6570  163.2352 C.3     1  UNL1        0.0294
     19 C         139.4832  145.3121  162.3670 C.3     1  UNL1        0.0666
     20 S         140.9351  145.2258  162.7334 S.3     1  UNL1       -0.0756
     21 C         141.0866  142.7966  160.5595 C.3     1  UNL1        0.1340
     22 N         141.6450  142.7703  161.9515 N.ar    1  UNL1       -0.2872
     23 C         141.5754  143.8868  162.9507 C.ar    1  UNL1        0.1933
     24 N         142.2584  143.4294  164.2054 N.ar    1  UNL1       -0.1221
     25 N         142.7501  142.0300  163.9816 N.ar    1  UNL1       -0.1266
     26 C         142.3711  141.6226  162.5886 C.ar    1  UNL1        0.1862
     27 C         142.6663  140.2999  161.9457 C.ar    1  UNL1        0.1362
     28 C         143.9765  140.0803  161.2493 C.ar    1  UNL1        0.1211
     29 N         144.2717  138.7576  160.6064 N.ar    1  UNL1       -0.2390
     30 C         143.2565  137.6546  160.6599 C.ar    1  UNL1        0.1195
     31 C         141.9463  137.8742  161.3563 C.ar    1  UNL1        0.1196
     32 N         141.6512  139.1969  161.9992 N.ar    1  UNL1       -0.2375
@<TRIPOS>BOND
     1    21    22    1
     2    22    23   ar
     3    23    20    1
     4    20    19    1
     5    19    18    1
     6    18     1    1
     7     1     2    1
     8     2     3    1
     9     3     4    1
    10     4     5    1
    11     5     6    1
    12     6     7    1
    13     7    10    1
    14    10    11   ar
    15    11    12   ar
    16    12    13   ar
    17    13    14    1
    18    13    15   ar
    19    15    16   ar
    20    16    17    1
    21     7     8    1
    22     8     9    1
    23    23    24   ar
    24    24    25   ar
    25    25    26   ar
    26    26    27    1
    27    27    28   ar
    28    28    29   ar
    29    29    30   ar
    30    30    31   ar
    31    31    32   ar
    32    26    22   ar
    33    32    27   ar
    34     9     2    1
    35     8     4    1
    36    16    10   ar
@<TRIPOS>MOLECULE
*****
 32 36 0 0 0
SMALL
GASTEIGER

@<TRIPOS>ATOM
      1 C         142.7926  138.4248  162.5106 C.3     1  UNL1        0.0731
      2 N         141.8650  138.6915  163.6588 N.3     1  UNL1       -0.2712
      3 C         140.4720  138.1559  163.8096 C.3     1  UNL1        0.0738
      4 C         139.9136  138.6740  165.1018 C.3     1  UNL1        0.0372
      5 C         138.7076  138.6632  165.9936 C.3     1  UNL1        0.0245
      6 C         139.0100  139.5124  167.1926 C.3     1  UNL1        0.0909
      7 N         140.4031  140.0480  167.0417 N.pl3   1  UNL1       -0.3060
      8 C         140.9615  139.5298  165.7496 C.3     1  UNL1        0.0901
      9 C         142.1675  139.5406  164.8577 C.3     1  UNL1        0.0921
     10 C         141.1130  140.9443  168.0126 C.ar    1  UNL1        0.0758
     11 C         140.5021  142.2563  168.4068 C.ar    1  UNL1        0.0191
     12 C         141.2120  143.1527  169.3776 C.ar    1  UNL1        0.0311
     13 C         142.5328  142.7370  169.9543 C.ar    1  UNL1        0.1425
     14 F         143.2427  143.6334  170.9252 F       1  UNL1       -0.2041
     15 C         143.1438  141.4250  169.5602 C.ar    1  UNL1        0.0605
     16 C         142.4339  140.5286  168.5893 C.ar    1  UNL1        0.1556
     17 F         143.0448  139.2166  168.1951 F       1  UNL1       -0.2028
     18 C         142.3338  137.5858  161.3550 C.3     1  UNL1        0.0294
     19 C         142.3657  138.1443  159.9631 C.3     1  UNL1        0.0666
     20 S         141.1251  138.7382  159.3647 S.3     1  UNL1       -0.0756
     21 C         141.4363  141.5432  161.0034 C.3     1  UNL1        0.1340
     22 N         140.2313  140.6499  161.0054 N.ar    1  UNL1       -0.2872
     23 C         140.0882  139.3606  160.2522 C.ar    1  UNL1        0.1933
     24 N         138.7263  138.8029  160.5422 N.ar    1  UNL1       -0.1221
     25 N         138.0276  139.7475  161.4747 N.ar    1  UNL1       -0.1266
     26 C         138.9577  140.8890  161.7610 C.ar    1  UNL1        0.1862
     27 C         138.6655  142.0635  162.6472 C.ar    1  UNL1        0.1362
     28 C         138.8824  141.9582  164.1277 C.ar    1  UNL1        0.1211
     29 N         138.5903  143.1326  165.0139 N.ar    1  UNL1       -0.2390
     30 C         138.0811  144.4123  164.4195 C.ar    1  UNL1        0.1195
     31 C         137.8641  144.5176  162.9390 C.ar    1  UNL1        0.1196
     32 N         138.1564  143.3431  162.0529 N.ar    1  UNL1       -0.2375
@<TRIPOS>BOND
     1    21    22    1
     2    22    23   ar
     3    23    20    1
     4    20    19    1
     5    19    18    1
     6    18     1    1
     7     1     2    1
     8     2     3    1
     9     3     4    1
    10     4     5    1
    11     5     6    1
    12     6     7    1
    13     7    10    1
    14    10    11   ar
    15    11    12   ar
    16    12    13   ar
    17    13    14    1
    18    13    15   ar
    19    15    16   ar
    20    16    17    1
    21     7     8    1
    22     8     9    1
    23    23    24   ar
    24    24    25   ar
    25    25    26   ar
    26    26    27    1
    27    27    28   ar
    28    28    29   ar
    29    29    30   ar
    30    30    31   ar
    31    31    32   ar
    32    26    22   ar
    33    32    27   ar
    34     9     2    1
    35     8     4    1
    36    16    10   ar
@<TRIPOS>MOLECULE
*****
 32 36 0 0 0
SMALL
GASTEIGER

@<TRIPOS>ATOM
      1 C         142.9729  144.5473  163.4103 C.3     1  UNL1        0.0731
      2 N         142.9449  143.1215  163.8755 N.3     1  UNL1       -0.2712
      3 C         143.4173  141.9303  163.0959 C.3     1  UNL1        0.0738
      4 C         143.2039  140.7093  163.9406 C.3     1  UNL1        0.0372
      5 C         143.3640  139.2184  163.9808 C.3     1  UNL1        0.0245
      6 C         142.8585  138.7335  165.3073 C.3     1  UNL1        0.0909
      7 N         142.3861  139.9248  166.0868 N.pl3   1  UNL1       -0.3060
      8 C         142.5995  141.1459  165.2422 C.3     1  UNL1        0.0901
      9 C         142.4395  142.6367  165.2019 C.3     1  UNL1        0.0921
     10 C         141.8026  139.8995  167.4685 C.ar    1  UNL1        0.0758
     11 C         142.5911  139.3193  168.6050 C.ar    1  UNL1        0.0191
     12 C         142.0076  139.2940  169.9867 C.ar    1  UNL1        0.0311
     13 C         140.6358  139.8487  170.2318 C.ar    1  UNL1        0.1425
     14 F         140.0523  139.8234  171.6134 F       1  UNL1       -0.2041
     15 C         139.8473  140.4289  169.0952 C.ar    1  UNL1        0.0605
     16 C         140.4307  140.4543  167.7136 C.ar    1  UNL1        0.1556
     17 F         139.6423  141.0344  166.5770 F       1  UNL1       -0.2028
     18 C         141.7618  145.4157  163.5805 C.3     1  UNL1        0.0294
     19 C         140.9609  145.8294  162.3816 C.3     1  UNL1        0.0666
     20 S         139.4912  145.5352  162.3235 S.3     1  UNL1       -0.0756
     21 C         140.2421  142.5427  161.2600 C.3     1  UNL1        0.1340
     22 N         139.3075  142.8692  162.3869 N.ar    1  UNL1       -0.2872
     23 C         138.9624  144.2447  162.8758 C.ar    1  UNL1        0.1933
     24 N         137.9956  144.1032  164.0138 N.ar    1  UNL1       -0.1221
     25 N         137.7432  142.6402  164.2284 N.ar    1  UNL1       -0.1266
     26 C         138.5540  141.8775  163.2229 C.ar    1  UNL1        0.1862
     27 C         138.6027  140.3853  163.0788 C.ar    1  UNL1        0.1362
     28 C         137.7575  139.7037  162.0439 C.ar    1  UNL1        0.1211
     29 N         137.8063  138.2115  161.8997 N.ar    1  UNL1       -0.2390
     30 C         138.7003  137.4008  162.7906 C.ar    1  UNL1        0.1195
     31 C         139.5455  138.0823  163.8255 C.ar    1  UNL1        0.1196
     32 N         139.4967  139.5746  163.9696 N.ar    1  UNL1       -0.2375
@<TRIPOS>BOND
     1    21    22    1
     2    22    23   ar
     3    23    20    1
     4    20    19    1
     5    19    18    1
     6    18     1    1
     7     1     2    1
     8     2     3    1
     9     3     4    1
    10     4     5    1
    11     5     6    1
    12     6     7    1
    13     7    10    1
    14    10    11   ar
    15    11    12   ar
    16    12    13   ar
    17    13    14    1
    18    13    15   ar
    19    15    16   ar
    20    16    17    1
    21     7     8    1
    22     8     9    1
    23    23    24   ar
    24    24    25   ar
    25    25    26   ar
    26    26    27    1
    27    27    28   ar
    28    28    29   ar
    29    29    30   ar
    30    30    31   ar
    31    31    32   ar
    32    26    22   ar
    33    32    27   ar
    34     9     2    1
    35     8     4    1
    36    16    10   ar
@<TRIPOS>MOLECULE
*****
 32 36 0 0 0
SMALL
GASTEIGER

@<TRIPOS>ATOM
      1 C         143.4941  143.9817  161.9222 C.3     1  UNL1        0.0731
      2 N         142.0602  143.7549  162.2996 N.3     1  UNL1       -0.2712
      3 C         140.9382  144.7359  162.1300 C.3     1  UNL1        0.0738
      4 C         139.6811  144.0946  162.6384 C.3     1  UNL1        0.0372
      5 C         138.2107  144.3046  162.8478 C.3     1  UNL1        0.0245
      6 C         137.6470  143.0570  163.4610 C.3     1  UNL1        0.0909
      7 N         138.7691  142.0761  163.6306 N.pl3   1  UNL1       -0.3060
      8 C         140.0262  142.7174  163.1222 C.3     1  UNL1        0.0901
      9 C         141.4966  142.5074  162.9128 C.3     1  UNL1        0.0921
     10 C         138.6542  140.6962  164.2074 C.ar    1  UNL1        0.0758
     11 C         138.2801  140.5144  165.6485 C.ar    1  UNL1        0.0191
     12 C         138.1652  139.1345  166.2253 C.ar    1  UNL1        0.0311
     13 C         138.4244  137.9363  165.3609 C.ar    1  UNL1        0.1425
     14 F         138.3096  136.5564  165.9377 F       1  UNL1       -0.2041
     15 C         138.7986  138.1181  163.9197 C.ar    1  UNL1        0.0605
     16 C         138.9135  139.4980  163.3429 C.ar    1  UNL1        0.1556
     17 F         139.2876  139.6798  161.9018 F       1  UNL1       -0.2028
     18 C         144.3318  142.8363  161.4359 C.3     1  UNL1        0.0294
     19 C         145.3429  142.2064  162.3474 C.3     1  UNL1        0.0666
     20 S         144.9220  141.1327  163.3066 S.3     1  UNL1       -0.0756
     21 C         143.2994  139.1126  165.2904 C.3     1  UNL1        0.1340
     22 N         143.5426  140.5738  165.5269 N.ar    1  UNL1       -0.2872
     23 C         144.2885  141.5023  164.6150 C.ar    1  UNL1        0.1933
     24 N         144.2895  142.8653  165.2412 N.ar    1  UNL1       -0.1221
     25 N         143.5443  142.7792  166.5402 N.ar    1  UNL1       -0.1266
     26 C         143.0827  141.3629  166.7168 C.ar    1  UNL1        0.1862
     27 C         142.2988  140.8295  167.8791 C.ar    1  UNL1        0.1362
     28 C         140.9277  141.3649  168.1680 C.ar    1  UNL1        0.1211
     29 N         140.1438  140.8315  169.3304 N.ar    1  UNL1       -0.2390
     30 C         140.7311  139.7626  170.2037 C.ar    1  UNL1        0.1195
     31 C         142.1022  139.2272  169.9148 C.ar    1  UNL1        0.1196
     32 N         142.8860  139.7607  168.7524 N.ar    1  UNL1       -0.2375
@<TRIPOS>BOND
     1    21    22    1
     2    22    23   ar
     3    23    20    1
     4    20    19    1
     5    19    18    1
     6    18     1    1
     7     1     2    1
     8     2     3    1
     9     3     4    1
    10     4     5    1
    11     5     6    1
    12     6     7    1
    13     7    10    1
    14    10    11   ar
    15    11    12   ar
    16    12    13   ar
    17    13    14    1
    18    13    15   ar
    19    15    16   ar
    20    16    17    1
    21     7     8    1
    22     8     9    1
    23    23    24   ar
    24    24    25   ar
    25    25    26   ar
    26    26    27    1
    27    27    28   ar
    28    28    29   ar
    29    29    30   ar
    30    30    31   ar
    31    31    32   ar
    32    26    22   ar
    33    32    27   ar
    34     9     2    1
    35     8     4    1
    36    16    10   ar
@<TRIPOS>MOLECULE
*****
 32 36 0 0 0
SMALL
GASTEIGER

@<TRIPOS>ATOM
      1 C         141.4420  144.9255  160.2944 C.3     1  UNL1        0.0731
      2 N         141.0448  144.5412  161.6889 N.3     1  UNL1       -0.2712
      3 C         140.0781  145.2805  162.5657 C.3     1  UNL1        0.0738
      4 C         139.9805  144.5463  163.8700 C.3     1  UNL1        0.0372
      5 C         139.3226  144.5494  165.2181 C.3     1  UNL1        0.0245
      6 C         139.8224  143.3582  165.9806 C.3     1  UNL1        0.0909
      7 N         140.7892  142.6189  165.1037 N.pl3   1  UNL1       -0.3060
      8 C         140.8868  143.3532  163.7993 C.3     1  UNL1        0.0901
      9 C         141.5447  143.3500  162.4513 C.3     1  UNL1        0.0921
     10 C         141.5285  141.3654  165.4674 C.ar    1  UNL1        0.0758
     11 C         141.8363  140.3436  164.4133 C.ar    1  UNL1        0.0191
     12 C         142.5756  139.0902  164.7770 C.ar    1  UNL1        0.0311
     13 C         143.0070  138.8585  166.1948 C.ar    1  UNL1        0.1425
     14 F         143.7463  137.6050  166.5585 F       1  UNL1       -0.2041
     15 C         142.6992  139.8803  167.2489 C.ar    1  UNL1        0.0605
     16 C         141.9599  141.1338  166.8853 C.ar    1  UNL1        0.1556
     17 F         141.6521  142.1556  167.9393 F       1  UNL1       -0.2028
     18 C         141.1571  143.9977  159.1508 C.3     1  UNL1        0.0294
     19 C         139.7490  143.8119  158.6684 C.3     1  UNL1        0.0666
     20 S         139.0294  142.5227  158.9333 S.3     1  UNL1       -0.0756
     21 C         139.8342  139.8338  160.5981 C.3     1  UNL1        0.1340
     22 N         138.9577  140.9468  161.0911 N.ar    1  UNL1       -0.2872
     23 C         138.5878  142.1828  160.3259 C.ar    1  UNL1        0.1933
     24 N         137.6988  143.0191  161.1978 N.ar    1  UNL1       -0.1221
     25 N         137.5192  142.3001  162.5019 N.ar    1  UNL1       -0.1266
     26 C         138.2973  141.0193  162.4361 C.ar    1  UNL1        0.1862
     27 C         138.3973  139.9915  163.5240 C.ar    1  UNL1        0.1362
     28 C         138.7625  138.5761  163.1874 C.ar    1  UNL1        0.1211
     29 N         138.8626  137.5483  164.2753 N.ar    1  UNL1       -0.2390
     30 C         138.5974  137.9360  165.7000 C.ar    1  UNL1        0.1195
     31 C         138.2323  139.3514  166.0366 C.ar    1  UNL1        0.1196
     32 N         138.1322  140.3792  164.9486 N.ar    1  UNL1       -0.2375
@<TRIPOS>BOND
     1    21    22    1
     2    22    23   ar
     3    23    20    1
     4    20    19    1
     5    19    18    1
     6    18     1    1
     7     1     2    1
     8     2     3    1
     9     3     4    1
    10     4     5    1
    11     5     6    1
    12     6     7    1
    13     7    10    1
    14    10    11   ar
    15    11    12   ar
    16    12    13   ar
    17    13    14    1
    18    13    15   ar
    19    15    16   ar
    20    16    17    1
    21     7     8    1
    22     8     9    1
    23    23    24   ar
    24    24    25   ar
    25    25    26   ar
    26    26    27    1
    27    27    28   ar
    28    28    29   ar
    29    29    30   ar
    30    30    31   ar
    31    31    32   ar
    32    26    22   ar
    33    32    27   ar
    34     9     2    1
    35     8     4    1
    36    16    10   ar
@<TRIPOS>MOLECULE
*****
 32 36 0 0 0
SMALL
GASTEIGER

@<TRIPOS>ATOM
      1 C         141.8115  144.7704  160.1938 C.3     1  UNL1        0.0731
      2 N         142.2368  143.3321  160.2140 N.3     1  UNL1       -0.2712
      3 C         142.5122  142.4772  159.0126 C.3     1  UNL1        0.0738
      4 C         142.9070  141.1130  159.4953 C.3     1  UNL1        0.0372
      5 C         143.3212  139.7415  159.0510 C.3     1  UNL1        0.0245
      6 C         143.5459  138.9055  160.2761 C.3     1  UNL1        0.0909
      7 N         143.2705  139.7605  161.4775 N.pl3   1  UNL1       -0.3060
      8 C         142.8757  141.1248  160.9949 C.3     1  UNL1        0.0901
      9 C         142.4615  142.4963  161.4391 C.3     1  UNL1        0.0921
     10 C         143.3722  139.3273  162.9100 C.ar    1  UNL1        0.0758
     11 C         142.3205  138.4353  163.5002 C.ar    1  UNL1        0.0191
     12 C         142.4222  138.0020  164.9326 C.ar    1  UNL1        0.0311
     13 C         143.5754  138.4608  165.7749 C.ar    1  UNL1        0.1425
     14 F         143.6771  138.0275  167.2074 F       1  UNL1       -0.2041
     15 C         144.6271  139.3528  165.1848 C.ar    1  UNL1        0.0605
     16 C         144.5255  139.7861  163.7523 C.ar    1  UNL1        0.1556
     17 F         145.5771  140.6781  163.1621 F       1  UNL1       -0.2028
     18 C         140.3559  145.1233  160.2754 C.3     1  UNL1        0.0294
     19 C         139.8295  145.8650  161.4683 C.3     1  UNL1        0.0666
     20 S         139.6946  145.1643  162.7876 S.3     1  UNL1       -0.0756
     21 C         140.6555  142.5851  164.5410 C.3     1  UNL1        0.1340
     22 N         139.4353  142.6549  163.6713 N.ar    1  UNL1       -0.2872
     23 C         138.9937  143.8404  162.8654 C.ar    1  UNL1        0.1933
     24 N         137.7280  143.4697  162.1508 N.ar    1  UNL1       -0.1221
     25 N         137.3874  142.0550  162.5152 N.ar    1  UNL1       -0.1266
     26 C         138.4425  141.5514  163.4549 C.ar    1  UNL1        0.1862
     27 C         138.4956  140.1844  164.0701 C.ar    1  UNL1        0.1362
     28 C         138.2671  140.0154  165.5430 C.ar    1  UNL1        0.1211
     29 N         138.3202  138.6484  166.1582 N.ar    1  UNL1       -0.2390
     30 C         138.6018  137.4504  165.3005 C.ar    1  UNL1        0.1195
     31 C         138.8303  137.6194  163.8277 C.ar    1  UNL1        0.1196
     32 N         138.7772  138.9865  163.2125 N.ar    1  UNL1       -0.2375
@<TRIPOS>BOND
     1    21    22    1
     2    22    23   ar
     3    23    20    1
     4    20    19    1
     5    19    18    1
     6    18     1    1
     7     1     2    1
     8     2     3    1
     9     3     4    1
    10     4     5    1
    11     5     6    1
    12     6     7    1
    13     7    10    1
    14    10    11   ar
    15    11    12   ar
    16    12    13   ar
    17    13    14    1
    18    13    15   ar
    19    15    16   ar
    20    16    17    1
    21     7     8    1
    22     8     9    1
    23    23    24   ar
    24    24    25   ar
    25    25    26   ar
    26    26    27    1
    27    27    28   ar
    28    28    29   ar
    29    29    30   ar
    30    30    31   ar
    31    31    32   ar
    32    26    22   ar
    33    32    27   ar
    34     9     2    1
    35     8     4    1
    36    16    10   ar
