@<TRIPOS>MOLECULE
*****
 40 45 0 0 0
SMALL
GASTEIGER

@<TRIPOS>ATOM
      1 C         140.0603  145.8212  155.2428 C.ar    1  UNL1        0.2400
      2 N         139.7032  146.8900  156.2328 N.ar    1  UNL1       -0.2090
      3 C         139.7942  146.6105  157.7038 C.ar    1  UNL1        0.1021
      4 C         140.2053  145.3718  158.5265 C.ar    1  UNL1        0.0207
      5 C         140.2832  145.1443  157.0459 C.ar    1  UNL1        0.0221
      6 C         140.5085  144.4730  155.7236 C.ar    1  UNL1        0.1178
      7 N         140.8569  143.4305  154.7029 N.pl3   1  UNL1       -0.2104
      8 S         141.2907  142.1299  154.0944 S.O2    1  UNL1        0.0737
      9 O         140.9420  143.1816  153.0833 O.2     1  UNL1       -0.1499
     10 O         141.4444  141.6743  152.6736 O.2     1  UNL1       -0.1499
     11 C         141.8673  140.3978  154.1076 C.ar    1  UNL1        0.1253
     12 C         142.0574  139.8323  152.7313 C.ar    1  UNL1        0.0202
     13 C         142.5283  138.4185  152.5599 C.ar    1  UNL1        0.0015
     14 C         142.8090  137.5702  153.7646 C.ar    1  UNL1        0.0046
     15 C         142.6189  138.1356  155.1409 C.ar    1  UNL1        0.0547
     16 C         142.1480  139.5494  155.3124 C.ar    1  UNL1        0.0247
     17 C         142.9100  137.2561  156.3206 C.2     1  UNL1        0.2459
     18 O         143.3266  136.0076  155.6009 O.2     1  UNL1       -0.2701
     19 N         143.0640  136.7875  157.7371 N.am    1  UNL1       -0.2989
     20 C         143.0641  136.7807  159.2372 C.3     1  UNL1        0.1161
     21 C         142.9105  137.2364  160.6580 C.3     1  UNL1        0.1487
     22 N         142.6196  138.1051  161.8457 N.ar    1  UNL1       -0.2477
     23 C         142.2231  139.2928  162.6715 C.ar    1  UNL1        0.0967
     24 C         141.7639  140.6708  163.0461 C.ar    1  UNL1        0.0397
     25 C         142.0791  139.7192  164.1620 C.ar    1  UNL1        0.1216
     26 N         142.5129  138.4187  163.5535 N.ar    1  UNL1       -0.1676
     27 C         141.2917  142.0897  162.9287 C.ar    1  UNL1        0.0060
     28 C         141.3440  141.9264  164.4189 C.ar    1  UNL1        0.0208
     29 C         140.9624  143.0691  165.3126 C.ar    1  UNL1        0.0988
     30 N         140.5284  144.3752  164.7159 N.ar    1  UNL1       -0.2438
     31 C         140.4762  144.5385  163.2258 C.ar    1  UNL1        0.0813
     32 C         140.0125  145.9346  162.4607 C.ar    1  UNL1        0.0191
     33 C         139.9244  146.2054  160.9880 C.ar    1  UNL1        0.0016
     34 C         140.2835  145.1309  160.0050 C.ar    1  UNL1        0.0016
     35 C         140.5091  144.4475  161.3211 C.ar    1  UNL1        0.0015
     36 C         140.8578  143.3958  162.3322 C.ar    1  UNL1        0.0178
     37 H         140.6867  143.9451  153.8811 H       1  UNL1        0.1739
     38 H         143.3707  135.8669  157.5708 H       1  UNL1        0.1498
     39 C         141.0842  146.8231  153.0753 C.3     1  UNL1        0.2543
     40 O         139.9693  146.1008  153.7719 O.3     1  UNL1       -0.4553
@<TRIPOS>BOND
     1    39    40    1
     2    40     1    1
     3     1     2   ar
     4     2     3   ar
     5     3     4   ar
     6     4     5   ar
     7     5     6   ar
     8     6     7    1
     9     7     8    1
    10     8     9    2
    11     8    10    2
    12     8    11    1
    13    11    12   ar
    14    12    13   ar
    15    13    14   ar
    16    14    15   ar
    17    15    16   ar
    18    15    17    1
    19    17    18    2
    20    17    19   am
    21    19    20    1
    22    20    21    1
    23    21    22    1
    24    22    23   ar
    25    23    24   ar
    26    24    25   ar
    27    25    26   ar
    28    24    27    1
    29    27    28   ar
    30    28    29   ar
    31    29    30   ar
    32    30    31   ar
    33    31    32   ar
    34    32    33   ar
    35    33    34   ar
    36    34    35   ar
    37    35    36   ar
    38     6     1   ar
    39    16    11   ar
    40    26    22   ar
    41    36    27   ar
    42    34     4    1
    43    36    31   ar
    44     7    37    1
    45    19    38    1
@<TRIPOS>MOLECULE
*****
 40 45 0 0 0
SMALL
GASTEIGER

@<TRIPOS>ATOM
      1 C         142.9896  136.3625  157.6838 C.ar    1  UNL1        0.2400
      2 N         143.0352  136.2563  156.1883 N.ar    1  UNL1       -0.2090
      3 C         142.6783  137.4417  155.3410 C.ar    1  UNL1        0.1021
      4 C         142.2326  138.8830  155.6640 C.ar    1  UNL1        0.0207
      5 C         142.4761  138.0559  156.8914 C.ar    1  UNL1        0.0221
      6 C         142.5872  137.6538  158.3322 C.ar    1  UNL1        0.1178
      7 N         142.5538  137.7204  159.8303 N.pl3   1  UNL1       -0.2104
      8 S         142.3795  138.2485  161.2234 S.O2    1  UNL1        0.0737
      9 O         142.8202  136.8157  161.1730 O.2     1  UNL1       -0.1499
     10 O         142.5592  137.6254  162.5760 O.2     1  UNL1       -0.1499
     11 C         141.9830  139.5030  162.4892 C.ar    1  UNL1        0.1253
     12 C         142.1289  138.9887  163.8906 C.ar    1  UNL1        0.0202
     13 C         141.8417  139.8906  165.0542 C.ar    1  UNL1        0.0015
     14 C         141.4086  141.3069  164.8163 C.ar    1  UNL1        0.0046
     15 C         141.2627  141.8212  163.4149 C.ar    1  UNL1        0.0547
     16 C         141.5499  140.9193  162.2513 C.ar    1  UNL1        0.0247
     17 C         140.8275  143.2431  163.2179 C.2     1  UNL1        0.2459
     18 O         140.6871  143.6593  164.6521 O.2     1  UNL1       -0.2701
     19 N         140.4384  144.5280  162.5488 N.am    1  UNL1       -0.2989
     20 C         140.1377  145.5366  161.4800 C.3     1  UNL1        0.1161
     21 C         139.9580  146.1597  160.1274 C.3     1  UNL1        0.1487
     22 N         139.9186  146.3298  158.6376 N.ar    1  UNL1       -0.2477
     23 C         140.0240  146.0282  157.1720 C.ar    1  UNL1        0.0967
     24 C         140.2625  145.2880  155.8894 C.ar    1  UNL1        0.0397
     25 C         139.8237  146.7190  155.7911 C.ar    1  UNL1        0.1216
     26 N         139.6494  147.2470  157.1842 N.ar    1  UNL1       -0.1676
     27 C         140.6085  144.1890  154.9288 C.ar    1  UNL1        0.0060
     28 C         140.2742  145.3037  153.9823 C.ar    1  UNL1        0.0208
     29 C         140.3558  145.0799  152.5014 C.ar    1  UNL1        0.0988
     30 N         140.7717  143.7414  151.9669 N.ar    1  UNL1       -0.2438
     31 C         141.1060  142.6268  152.9134 C.ar    1  UNL1        0.0813
     32 C         141.5760  141.1109  152.4333 C.ar    1  UNL1        0.0191
     33 C         141.9313  139.9307  153.2882 C.ar    1  UNL1        0.0016
     34 C         141.8830  140.0456  154.7830 C.ar    1  UNL1        0.0016
     35 C         141.4652  141.4177  154.3439 C.ar    1  UNL1        0.0015
     36 C         141.0244  142.8506  154.3944 C.ar    1  UNL1        0.0178
     37 H         142.8347  136.8004  160.0398 H       1  UNL1        0.1739
     38 H         140.2623  145.0787  163.3456 H       1  UNL1        0.1498
     39 C         143.7355  133.8817  157.8825 C.3     1  UNL1        0.2543
     40 O         143.3465  135.1771  158.5309 O.3     1  UNL1       -0.4553
@<TRIPOS>BOND
     1    39    40    1
     2    40     1    1
     3     1     2   ar
     4     2     3   ar
     5     3     4   ar
     6     4     5   ar
     7     5     6   ar
     8     6     7    1
     9     7     8    1
    10     8     9    2
    11     8    10    2
    12     8    11    1
    13    11    12   ar
    14    12    13   ar
    15    13    14   ar
    16    14    15   ar
    17    15    16   ar
    18    15    17    1
    19    17    18    2
    20    17    19   am
    21    19    20    1
    22    20    21    1
    23    21    22    1
    24    22    23   ar
    25    23    24   ar
    26    24    25   ar
    27    25    26   ar
    28    24    27    1
    29    27    28   ar
    30    28    29   ar
    31    29    30   ar
    32    30    31   ar
    33    31    32   ar
    34    32    33   ar
    35    33    34   ar
    36    34    35   ar
    37    35    36   ar
    38     6     1   ar
    39    16    11   ar
    40    26    22   ar
    41    36    27   ar
    42    34     4    1
    43    36    31   ar
    44     7    37    1
    45    19    38    1
@<TRIPOS>MOLECULE
*****
 40 45 0 0 0
SMALL
GASTEIGER

@<TRIPOS>ATOM
      1 C         142.9511  137.5611  157.1111 C.ar    1  UNL1        0.2400
      2 N         143.1449  136.5142  158.1677 N.ar    1  UNL1       -0.2090
      3 C         142.8214  136.8246  159.5993 C.ar    1  UNL1        0.1021
      4 C         142.2861  138.0795  160.3197 C.ar    1  UNL1        0.0207
      5 C         142.4451  138.2755  158.8411 C.ar    1  UNL1        0.0221
      6 C         142.4338  138.9183  157.4858 C.ar    1  UNL1        0.1178
      7 N         142.2535  139.9382  156.4008 N.pl3   1  UNL1       -0.2104
      8 S         141.9236  141.2247  155.7036 S.O2    1  UNL1        0.0737
      9 O         142.4274  140.1526  154.7834 O.2     1  UNL1       -0.1499
     10 O         141.9985  141.6499  154.2671 O.2     1  UNL1       -0.1499
     11 C         141.3544  142.9555  155.5882 C.ar    1  UNL1        0.1253
     12 C         141.3863  143.4913  154.1876 C.ar    1  UNL1        0.0202
     13 C         140.9504  144.9001  153.9134 C.ar    1  UNL1        0.0015
     14 C         140.4827  145.7731  155.0400 C.ar    1  UNL1        0.0046
     15 C         140.4508  145.2373  156.4406 C.ar    1  UNL1        0.0547
     16 C         140.8866  143.8285  156.7147 C.ar    1  UNL1        0.0247
     17 C         139.9768  146.1409  157.5400 C.2     1  UNL1        0.2459
     18 O         139.6815  147.3730  156.7370 O.2     1  UNL1       -0.2701
     19 N         139.6000  146.6390  158.9038 N.am    1  UNL1       -0.2989
     20 C         139.3612  146.6775  160.3842 C.3     1  UNL1        0.1161
     21 C         139.2863  146.2523  161.8208 C.3     1  UNL1        0.1487
     22 N         139.3835  145.4095  163.0578 N.ar    1  UNL1       -0.2477
     23 C         139.6421  144.2403  163.9612 C.ar    1  UNL1        0.0967
     24 C         140.0342  142.8716  164.4332 C.ar    1  UNL1        0.0397
     25 C         139.5467  143.8458  165.4643 C.ar    1  UNL1        0.1216
     26 N         139.2168  145.1323  164.7670 N.ar    1  UNL1       -0.1676
     27 C         140.5173  141.4515  164.4225 C.ar    1  UNL1        0.0060
     28 C         140.2288  141.6462  165.8816 C.ar    1  UNL1        0.0208
     29 C         140.4621  140.5234  166.8485 C.ar    1  UNL1        0.0988
     30 N         140.9838  139.2059  166.3564 N.ar    1  UNL1       -0.2438
     31 C         141.2722  139.0113  164.8973 C.ar    1  UNL1        0.0813
     32 C         141.8500  137.6004  164.2455 C.ar    1  UNL1        0.0191
     33 C         142.1709  137.2987  162.8116 C.ar    1  UNL1        0.0016
     34 C         141.9741  138.3515  161.7614 C.ar    1  UNL1        0.0016
     35 C         141.5428  139.0619  163.0101 C.ar    1  UNL1        0.0015
     36 C         141.0390  140.1341  163.9304 C.ar    1  UNL1        0.0178
     37 H         142.5516  139.4067  155.6276 H       1  UNL1        0.1739
     38 H         139.3248  147.5553  158.6714 H       1  UNL1        0.1498
     39 C         144.1000  136.0447  155.3418 C.3     1  UNL1        0.2543
     40 O         143.2746  137.2507  155.6796 O.3     1  UNL1       -0.4553
@<TRIPOS>BOND
     1    39    40    1
     2    40     1    1
     3     1     2   ar
     4     2     3   ar
     5     3     4   ar
     6     4     5   ar
     7     5     6   ar
     8     6     7    1
     9     7     8    1
    10     8     9    2
    11     8    10    2
    12     8    11    1
    13    11    12   ar
    14    12    13   ar
    15    13    14   ar
    16    14    15   ar
    17    15    16   ar
    18    15    17    1
    19    17    18    2
    20    17    19   am
    21    19    20    1
    22    20    21    1
    23    21    22    1
    24    22    23   ar
    25    23    24   ar
    26    24    25   ar
    27    25    26   ar
    28    24    27    1
    29    27    28   ar
    30    28    29   ar
    31    29    30   ar
    32    30    31   ar
    33    31    32   ar
    34    32    33   ar
    35    33    34   ar
    36    34    35   ar
    37    35    36   ar
    38     6     1   ar
    39    16    11   ar
    40    26    22   ar
    41    36    27   ar
    42    34     4    1
    43    36    31   ar
    44     7    37    1
    45    19    38    1
@<TRIPOS>MOLECULE
*****
 40 45 0 0 0
SMALL
GASTEIGER

@<TRIPOS>ATOM
      1 C         142.9742  136.7527  156.4229 C.ar    1  UNL1        0.2400
      2 N         143.1928  135.9199  157.6512 N.ar    1  UNL1       -0.2090
      3 C         142.9748  136.5162  159.0103 C.ar    1  UNL1        0.1021
      4 C         142.5383  137.9124  159.5004 C.ar    1  UNL1        0.0207
      5 C         142.6098  137.8119  158.0055 C.ar    1  UNL1        0.0221
      6 C         142.5375  138.1817  156.5536 C.ar    1  UNL1        0.1178
      7 N         142.3294  138.9819  155.3021 N.pl3   1  UNL1       -0.2104
      8 S         142.0079  140.1257  154.3865 S.O2    1  UNL1        0.0737
      9 O         142.4076  138.8719  153.6668 O.2     1  UNL1       -0.1499
     10 O         142.0075  140.2622  152.8928 O.2     1  UNL1       -0.1499
     11 C         141.5031  141.8293  153.9671 C.ar    1  UNL1        0.1253
     12 C         141.4667  142.0834  152.4893 C.ar    1  UNL1        0.0202
     13 C         141.0717  143.4340  151.9700 C.ar    1  UNL1        0.0015
     14 C         140.7130  144.5306  152.9285 C.ar    1  UNL1        0.0046
     15 C         140.7494  144.2766  154.4064 C.ar    1  UNL1        0.0547
     16 C         141.1445  142.9260  154.9257 C.ar    1  UNL1        0.0247
     17 C         140.3841  145.3983  155.3328 C.2     1  UNL1        0.2459
     18 O         140.0881  146.4666  154.3223 O.2     1  UNL1       -0.2701
     19 N         140.1162  146.1683  156.5918 N.am    1  UNL1       -0.2989
     20 C         139.9747  146.5033  158.0472 C.3     1  UNL1        0.1161
     21 C         139.9751  146.3668  159.5410 C.3     1  UNL1        0.1487
     22 N         140.1172  145.7737  160.9114 N.ar    1  UNL1       -0.2477
     23 C         140.3857  144.7882  162.0099 C.ar    1  UNL1        0.0967
     24 C         140.7514  143.5173  162.7175 C.ar    1  UNL1        0.0397
     25 C         140.3711  144.6957  163.5640 C.ar    1  UNL1        0.1216
     26 N         140.0496  145.8395  162.6484 N.ar    1  UNL1       -0.1676
     27 C         141.1749  142.0983  162.9575 C.ar    1  UNL1        0.0060
     28 C         140.9888  142.5848  164.3642 C.ar    1  UNL1        0.0208
     29 C         141.2379  141.6584  165.5173 C.ar    1  UNL1        0.0988
     30 N         141.6731  140.2454  165.2637 N.ar    1  UNL1       -0.2438
     31 C         141.8591  139.7590  163.8570 C.ar    1  UNL1        0.0813
     32 C         142.3361  138.2208  163.4622 C.ar    1  UNL1        0.0191
     33 C         142.5517  137.6326  162.0993 C.ar    1  UNL1        0.0016
     34 C         142.3307  138.4726  160.8763 C.ar    1  UNL1        0.0016
     35 C         142.0097  139.4315  161.9842 C.ar    1  UNL1        0.0015
     36 C         141.6100  140.6854  162.7040 C.ar    1  UNL1        0.0178
     37 H         142.5554  138.2967  154.6322 H       1  UNL1        0.1739
     38 H         139.8640  147.0359  156.2006 H       1  UNL1        0.1498
     39 C         142.1089  135.3438  154.4189 C.3     1  UNL1        0.2543
     40 O         143.1922  136.1562  155.0640 O.3     1  UNL1       -0.4553
@<TRIPOS>BOND
     1    39    40    1
     2    40     1    1
     3     1     2   ar
     4     2     3   ar
     5     3     4   ar
     6     4     5   ar
     7     5     6   ar
     8     6     7    1
     9     7     8    1
    10     8     9    2
    11     8    10    2
    12     8    11    1
    13    11    12   ar
    14    12    13   ar
    15    13    14   ar
    16    14    15   ar
    17    15    16   ar
    18    15    17    1
    19    17    18    2
    20    17    19   am
    21    19    20    1
    22    20    21    1
    23    21    22    1
    24    22    23   ar
    25    23    24   ar
    26    24    25   ar
    27    25    26   ar
    28    24    27    1
    29    27    28   ar
    30    28    29   ar
    31    29    30   ar
    32    30    31   ar
    33    31    32   ar
    34    32    33   ar
    35    33    34   ar
    36    34    35   ar
    37    35    36   ar
    38     6     1   ar
    39    16    11   ar
    40    26    22   ar
    41    36    27   ar
    42    34     4    1
    43    36    31   ar
    44     7    37    1
    45    19    38    1
@<TRIPOS>MOLECULE
*****
 40 45 0 0 0
SMALL
GASTEIGER

@<TRIPOS>ATOM
      1 C         143.8412  140.3773  161.8957 C.ar    1  UNL1        0.2400
      2 N         144.3458  138.9926  162.1751 N.ar    1  UNL1       -0.2090
      3 C         144.0935  137.8895  161.1904 C.ar    1  UNL1        0.1021
      4 C         143.3716  137.8255  159.8284 C.ar    1  UNL1        0.0207
      5 C         143.3525  139.1959  160.4381 C.ar    1  UNL1        0.0221
      6 C         143.0842  140.6589  160.6318 C.ar    1  UNL1        0.1178
      7 N         142.5958  142.0561  160.3884 N.pl3   1  UNL1       -0.2104
      8 S         141.9402  143.2361  159.7343 S.O2    1  UNL1        0.0737
      9 O         142.5749  143.5551  161.0553 O.2     1  UNL1       -0.1499
     10 O         141.7946  144.6723  160.1415 O.2     1  UNL1       -0.1499
     11 C         141.0098  144.1100  158.4290 C.ar    1  UNL1        0.1253
     12 C         140.8021  145.5646  158.7305 C.ar    1  UNL1        0.0202
     13 C         140.0554  146.4322  157.7612 C.ar    1  UNL1        0.0015
     14 C         139.5164  145.8452  156.4904 C.ar    1  UNL1        0.0046
     15 C         139.7241  144.3906  156.1889 C.ar    1  UNL1        0.0547
     16 C         140.4708  143.5230  157.1582 C.ar    1  UNL1        0.0247
     17 C         139.1701  143.8408  154.9080 C.2     1  UNL1        0.2459
     18 O         138.5502  145.0882  154.3515 O.2     1  UNL1       -0.2701
     19 N         138.8201  142.8804  153.8103 N.am    1  UNL1       -0.2989
     20 C         138.7121  141.6133  153.0146 C.3     1  UNL1        0.1161
     21 C         138.8578  140.1770  152.6074 C.3     1  UNL1        0.1487
     22 N         139.2413  138.7271  152.6326 N.ar    1  UNL1       -0.2477
     23 C         139.8213  137.4207  153.0876 C.ar    1  UNL1        0.0967
     24 C         140.5346  136.3994  153.9230 C.ar    1  UNL1        0.0397
     25 C         139.9464  135.9404  152.6217 C.ar    1  UNL1        0.1216
     26 N         139.2908  137.1204  151.9676 N.ar    1  UNL1       -0.1676
     27 C         141.3042  135.7738  155.0484 C.ar    1  UNL1        0.0060
     28 C         141.1129  134.5951  154.1406 C.ar    1  UNL1        0.0208
     29 C         141.6639  133.2543  154.5261 C.ar    1  UNL1        0.0988
     30 N         142.4063  133.0922  155.8195 N.ar    1  UNL1       -0.2438
     31 C         142.5976  134.2709  156.7272 C.ar    1  UNL1        0.0813
     32 C         143.4000  134.2057  158.1768 C.ar    1  UNL1        0.0191
     33 C         143.6477  135.3147  159.1559 C.ar    1  UNL1        0.0016
     34 C         143.1395  136.6964  158.8686 C.ar    1  UNL1        0.0016
     35 C         142.6812  135.9307  157.6628 C.ar    1  UNL1        0.0015
     36 C         142.0465  135.6117  156.3417 C.ar    1  UNL1        0.0178
     37 H         142.9292  142.4893  161.2072 H       1  UNL1        0.1739
     38 H         138.3376  143.4917  153.2079 H       1  UNL1        0.1498
     39 C         145.4948  141.7904  163.3165 C.3     1  UNL1        0.2543
     40 O         144.0935  141.4803  162.8805 O.3     1  UNL1       -0.4553
@<TRIPOS>BOND
     1    39    40    1
     2    40     1    1
     3     1     2   ar
     4     2     3   ar
     5     3     4   ar
     6     4     5   ar
     7     5     6   ar
     8     6     7    1
     9     7     8    1
    10     8     9    2
    11     8    10    2
    12     8    11    1
    13    11    12   ar
    14    12    13   ar
    15    13    14   ar
    16    14    15   ar
    17    15    16   ar
    18    15    17    1
    19    17    18    2
    20    17    19   am
    21    19    20    1
    22    20    21    1
    23    21    22    1
    24    22    23   ar
    25    23    24   ar
    26    24    25   ar
    27    25    26   ar
    28    24    27    1
    29    27    28   ar
    30    28    29   ar
    31    29    30   ar
    32    30    31   ar
    33    31    32   ar
    34    32    33   ar
    35    33    34   ar
    36    34    35   ar
    37    35    36   ar
    38     6     1   ar
    39    16    11   ar
    40    26    22   ar
    41    36    27   ar
    42    34     4    1
    43    36    31   ar
    44     7    37    1
    45    19    38    1
@<TRIPOS>MOLECULE
*****
 40 45 0 0 0
SMALL
GASTEIGER

@<TRIPOS>ATOM
      1 C         142.7470  139.5984  162.2589 C.ar    1  UNL1        0.2400
      2 N         142.4611  140.9287  162.8904 N.ar    1  UNL1       -0.2090
      3 C         141.9575  142.0649  162.0504 C.ar    1  UNL1        0.1021
      4 C         141.6301  142.2134  160.5501 C.ar    1  UNL1        0.0207
      5 C         142.1155  140.8408  160.9110 C.ar    1  UNL1        0.0221
      6 C         142.5293  139.4043  160.7876 C.ar    1  UNL1        0.1178
      7 N         142.8265  138.0596  160.1932 N.pl3   1  UNL1       -0.2104
      8 S         142.9751  136.9523  159.1922 S.O2    1  UNL1        0.0737
      9 O         143.3575  136.5581  160.5880 O.2     1  UNL1       -0.1499
     10 O         143.4309  135.5284  159.3126 O.2     1  UNL1       -0.1499
     11 C         142.8975  136.1843  157.5378 C.ar    1  UNL1        0.1253
     12 C         143.3338  134.7492  157.5363 C.ar    1  UNL1        0.0202
     13 C         143.3314  133.9660  156.2570 C.ar    1  UNL1        0.0015
     14 C         142.8927  134.6179  154.9793 C.ar    1  UNL1        0.0046
     15 C         142.4565  136.0530  154.9808 C.ar    1  UNL1        0.0547
     16 C         142.4588  136.8362  156.2600 C.ar    1  UNL1        0.0247
     17 C         142.0249  136.6694  153.6832 C.2     1  UNL1        0.2459
     18 O         142.2128  135.4903  152.7752 O.2     1  UNL1       -0.2701
     19 N         141.5315  137.6738  152.6844 N.am    1  UNL1       -0.2989
     20 C         141.0296  138.9577  152.0928 C.3     1  UNL1        0.1161
     21 C         140.5738  140.3817  151.9724 C.3     1  UNL1        0.1487
     22 N         140.2134  141.7916  152.3363 N.ar    1  UNL1       -0.2477
     23 C         139.9874  143.0345  153.1451 C.ar    1  UNL1        0.0967
     24 C         139.9204  143.9758  154.3109 C.ar    1  UNL1        0.0397
     25 C         139.5071  144.5050  152.9696 C.ar    1  UNL1        0.1216
     26 N         139.6556  143.3978  151.9687 N.ar    1  UNL1       -0.1676
     27 C         140.0195  144.5135  155.7078 C.ar    1  UNL1        0.0060
     28 C         139.5144  145.7185  154.9709 C.ar    1  UNL1        0.0208
     29 C         139.2638  146.9993  155.7104 C.ar    1  UNL1        0.0988
     30 N         139.5185  147.0751  157.1867 N.ar    1  UNL1       -0.2438
     31 C         140.0236  145.8702  157.9235 C.ar    1  UNL1        0.0813
     32 C         140.3384  145.8419  159.5512 C.ar    1  UNL1        0.0191
     33 C         140.8422  144.7003  160.3836 C.ar    1  UNL1        0.0016
     34 C         141.1255  143.3734  159.7439 C.ar    1  UNL1        0.0016
     35 C         140.6566  144.1951  158.5799 C.ar    1  UNL1        0.0015
     36 C         140.2741  144.5894  157.1840 C.ar    1  UNL1        0.0178
     37 H         143.1230  137.5861  161.0038 H       1  UNL1        0.1739
     38 H         141.5482  137.1170  151.8727 H       1  UNL1        0.1498
     39 C         142.8890  138.3866  164.5527 C.3     1  UNL1        0.2543
     40 O         143.2506  138.4623  163.0989 O.3     1  UNL1       -0.4553
@<TRIPOS>BOND
     1    39    40    1
     2    40     1    1
     3     1     2   ar
     4     2     3   ar
     5     3     4   ar
     6     4     5   ar
     7     5     6   ar
     8     6     7    1
     9     7     8    1
    10     8     9    2
    11     8    10    2
    12     8    11    1
    13    11    12   ar
    14    12    13   ar
    15    13    14   ar
    16    14    15   ar
    17    15    16   ar
    18    15    17    1
    19    17    18    2
    20    17    19   am
    21    19    20    1
    22    20    21    1
    23    21    22    1
    24    22    23   ar
    25    23    24   ar
    26    24    25   ar
    27    25    26   ar
    28    24    27    1
    29    27    28   ar
    30    28    29   ar
    31    29    30   ar
    32    30    31   ar
    33    31    32   ar
    34    32    33   ar
    35    33    34   ar
    36    34    35   ar
    37    35    36   ar
    38     6     1   ar
    39    16    11   ar
    40    26    22   ar
    41    36    27   ar
    42    34     4    1
    43    36    31   ar
    44     7    37    1
    45    19    38    1
@<TRIPOS>MOLECULE
*****
 40 45 0 0 0
SMALL
GASTEIGER

@<TRIPOS>ATOM
      1 C         138.2729  143.8151  153.9199 C.ar    1  UNL1        0.2400
      2 N         138.2387  145.0833  154.7203 N.ar    1  UNL1       -0.2090
      3 C         138.8736  145.1303  156.0785 C.ar    1  UNL1        0.1021
      4 C         139.6261  144.0920  156.9362 C.ar    1  UNL1        0.0207
      5 C         139.1739  143.5439  155.6152 C.ar    1  UNL1        0.0221
      6 C         138.9420  142.5940  154.4777 C.ar    1  UNL1        0.1178
      7 N         138.9555  141.3450  153.6472 N.pl3   1  UNL1       -0.2104
      8 S         139.2129  139.9323  153.2135 S.O2    1  UNL1        0.0737
      9 O         138.4608  140.7456  152.2021 O.2     1  UNL1       -0.1499
     10 O         138.8661  139.1731  151.9673 O.2     1  UNL1       -0.1499
     11 C         139.8537  138.2312  153.3823 C.ar    1  UNL1        0.1253
     12 C         139.5634  137.3737  152.1864 C.ar    1  UNL1        0.0202
     13 C         140.0205  135.9453  152.1590 C.ar    1  UNL1        0.0015
     14 C         140.7679  135.3745  153.3275 C.ar    1  UNL1        0.0046
     15 C         141.0583  136.2320  154.5234 C.ar    1  UNL1        0.0547
     16 C         140.6012  137.6604  154.5508 C.ar    1  UNL1        0.0247
     17 C         141.8081  135.6251  155.6721 C.2     1  UNL1        0.2459
     18 O         142.0062  134.2394  155.1330 O.2     1  UNL1       -0.2701
     19 N         142.4927  135.4742  156.9981 N.am    1  UNL1       -0.2989
     20 C         143.0380  135.7960  158.3580 C.3     1  UNL1        0.1161
     21 C         143.3848  136.5553  159.6043 C.3     1  UNL1        0.1487
     22 N         143.4956  137.6700  160.6019 N.ar    1  UNL1       -0.2477
     23 C         143.3582  139.0192  161.2427 C.ar    1  UNL1        0.0967
     24 C         142.9878  140.4568  161.4574 C.ar    1  UNL1        0.0397
     25 C         143.7410  139.7650  162.5547 C.ar    1  UNL1        0.1216
     26 N         143.9984  138.3523  162.1210 N.ar    1  UNL1       -0.1676
     27 C         142.4242  141.8270  161.2225 C.ar    1  UNL1        0.0060
     28 C         143.0235  141.9925  162.5877 C.ar    1  UNL1        0.0208
     29 C         142.9272  143.3123  163.2940 C.ar    1  UNL1        0.0988
     30 N         142.2317  144.4666  162.6351 N.ar    1  UNL1       -0.2438
     31 C         141.6325  144.3010  161.2700 C.ar    1  UNL1        0.0813
     32 C         140.8430  145.5069  160.4503 C.ar    1  UNL1        0.0191
     33 C         140.2107  145.4509  159.0913 C.ar    1  UNL1        0.0016
     34 C         140.2496  144.1786  158.2978 C.ar    1  UNL1        0.0016
     35 C         140.9767  143.7945  159.5523 C.ar    1  UNL1        0.0015
     36 C         141.7288  142.9812  160.5637 C.ar    1  UNL1        0.0178
     37 H         138.4691  141.6714  152.8558 H       1  UNL1        0.1739
     38 H         142.7706  134.5322  156.9308 H       1  UNL1        0.1498
     39 C         136.1782  143.4510  152.4268 C.3     1  UNL1        0.2543
     40 O         137.6380  143.7681  152.5617 O.3     1  UNL1       -0.4553
@<TRIPOS>BOND
     1    39    40    1
     2    40     1    1
     3     1     2   ar
     4     2     3   ar
     5     3     4   ar
     6     4     5   ar
     7     5     6   ar
     8     6     7    1
     9     7     8    1
    10     8     9    2
    11     8    10    2
    12     8    11    1
    13    11    12   ar
    14    12    13   ar
    15    13    14   ar
    16    14    15   ar
    17    15    16   ar
    18    15    17    1
    19    17    18    2
    20    17    19   am
    21    19    20    1
    22    20    21    1
    23    21    22    1
    24    22    23   ar
    25    23    24   ar
    26    24    25   ar
    27    25    26   ar
    28    24    27    1
    29    27    28   ar
    30    28    29   ar
    31    29    30   ar
    32    30    31   ar
    33    31    32   ar
    34    32    33   ar
    35    33    34   ar
    36    34    35   ar
    37    35    36   ar
    38     6     1   ar
    39    16    11   ar
    40    26    22   ar
    41    36    27   ar
    42    34     4    1
    43    36    31   ar
    44     7    37    1
    45    19    38    1
@<TRIPOS>MOLECULE
*****
 40 45 0 0 0
SMALL
GASTEIGER

@<TRIPOS>ATOM
      1 C         142.6722  139.1424  154.6930 C.ar    1  UNL1        0.2400
      2 N         143.1466  137.9062  155.3979 N.ar    1  UNL1       -0.2090
      3 C         143.1149  137.8382  156.8961 C.ar    1  UNL1        0.1021
      4 C         142.6704  138.8253  157.9953 C.ar    1  UNL1        0.0207
      5 C         142.5016  139.3757  156.6102 C.ar    1  UNL1        0.0221
      6 C         142.1663  140.3106  155.4862 C.ar    1  UNL1        0.1178
      7 N         141.7007  141.5288  154.7451 N.pl3   1  UNL1       -0.2104
      8 S         141.1553  142.8983  154.4672 S.O2    1  UNL1        0.0737
      9 O         141.5160  142.1309  153.2300 O.2     1  UNL1       -0.1499
     10 O         140.8998  143.6511  153.1954 O.2     1  UNL1       -0.1499
     11 C         140.4730  144.5358  154.8983 C.ar    1  UNL1        0.1253
     12 C         140.1765  145.3826  153.6963 C.ar    1  UNL1        0.0202
     13 C         139.6099  146.7604  153.8708 C.ar    1  UNL1        0.0015
     14 C         139.3397  147.2914  155.2474 C.ar    1  UNL1        0.0046
     15 C         139.6362  146.4446  156.4495 C.ar    1  UNL1        0.0547
     16 C         140.2028  145.0668  156.2749 C.ar    1  UNL1        0.0247
     17 C         139.3524  147.0108  157.8092 C.2     1  UNL1        0.2459
     18 O         138.8216  148.3560  157.4107 O.2     1  UNL1       -0.2701
     19 N         139.2432  147.1342  159.3001 N.am    1  UNL1       -0.2989
     20 C         139.3207  146.8014  160.7607 C.3     1  UNL1        0.1161
     21 C         139.5762  146.0484  162.0326 C.3     1  UNL1        0.1487
     22 N         139.9822  144.9570  162.9781 N.ar    1  UNL1       -0.2477
     23 C         140.4947  143.6453  163.4945 C.ar    1  UNL1        0.0967
     24 C         141.0581  142.2555  163.5262 C.ar    1  UNL1        0.0397
     25 C         140.7425  142.9043  164.8413 C.ar    1  UNL1        0.1216
     26 N         140.1971  144.2737  164.5634 N.ar    1  UNL1       -0.1676
     27 C         141.6113  140.9381  163.0694 C.ar    1  UNL1        0.0060
     28 C         141.6265  140.7558  164.5583 C.ar    1  UNL1        0.0208
     29 C         142.1248  139.4714  165.1515 C.ar    1  UNL1        0.0988
     30 N         142.6080  138.3693  164.2559 N.ar    1  UNL1       -0.2438
     31 C         142.5928  138.5516  162.7672 C.ar    1  UNL1        0.0813
     32 C         143.1025  137.4025  161.6859 C.ar    1  UNL1        0.0191
     33 C         143.1306  137.4791  160.1882 C.ar    1  UNL1        0.0016
     34 C         142.6544  138.7191  159.4915 C.ar    1  UNL1        0.0016
     35 C         142.4552  139.0686  160.9366 C.ar    1  UNL1        0.0015
     36 C         142.0945  139.8361  162.1739 C.ar    1  UNL1        0.0178
     37 H         141.8597  141.2273  153.8215 H       1  UNL1        0.1739
     38 H         138.8713  148.0438  159.3606 H       1  UNL1        0.1498
     39 C         143.9452  139.6728  152.4911 C.3     1  UNL1        0.2543
     40 O         142.7039  139.2103  153.1949 O.3     1  UNL1       -0.4553
@<TRIPOS>BOND
     1    39    40    1
     2    40     1    1
     3     1     2   ar
     4     2     3   ar
     5     3     4   ar
     6     4     5   ar
     7     5     6   ar
     8     6     7    1
     9     7     8    1
    10     8     9    2
    11     8    10    2
    12     8    11    1
    13    11    12   ar
    14    12    13   ar
    15    13    14   ar
    16    14    15   ar
    17    15    16   ar
    18    15    17    1
    19    17    18    2
    20    17    19   am
    21    19    20    1
    22    20    21    1
    23    21    22    1
    24    22    23   ar
    25    23    24   ar
    26    24    25   ar
    27    25    26   ar
    28    24    27    1
    29    27    28   ar
    30    28    29   ar
    31    29    30   ar
    32    30    31   ar
    33    31    32   ar
    34    32    33   ar
    35    33    34   ar
    36    34    35   ar
    37    35    36   ar
    38     6     1   ar
    39    16    11   ar
    40    26    22   ar
    41    36    27   ar
    42    34     4    1
    43    36    31   ar
    44     7    37    1
    45    19    38    1
@<TRIPOS>MOLECULE
*****
 40 45 0 0 0
SMALL
GASTEIGER

@<TRIPOS>ATOM
      1 C         142.9718  143.1765  161.7951 C.ar    1  UNL1        0.2400
      2 N         143.6427  142.0556  162.5325 N.ar    1  UNL1       -0.2090
      3 C         143.6841  140.6816  161.9320 C.ar    1  UNL1        0.1021
      4 C         143.1537  140.0820  160.6132 C.ar    1  UNL1        0.0207
      5 C         142.8516  141.5444  160.7554 C.ar    1  UNL1        0.0221
      6 C         142.3425  142.9235  160.4573 C.ar    1  UNL1        0.1178
      7 N         141.6813  144.0698  159.7511 N.pl3   1  UNL1       -0.2104
      8 S         140.9397  144.8592  158.7134 S.O2    1  UNL1        0.0737
      9 O         141.3509  145.6694  159.9068 O.2     1  UNL1       -0.1499
     10 O         140.5285  146.2995  158.6344 O.2     1  UNL1       -0.1499
     11 C         140.0553  145.1167  157.1371 C.ar    1  UNL1        0.1253
     12 C         139.5936  146.5312  156.9479 C.ar    1  UNL1        0.0202
     13 C         138.8489  146.9171  155.7044 C.ar    1  UNL1        0.0015
     14 C         138.5660  145.8884  154.6500 C.ar    1  UNL1        0.0046
     15 C         139.0277  144.4739  154.8391 C.ar    1  UNL1        0.0547
     16 C         139.7724  144.0880  156.0827 C.ar    1  UNL1        0.0247
     17 C         138.7258  143.4742  153.7624 C.2     1  UNL1        0.2459
     18 O         137.9969  144.3625  152.7981 O.2     1  UNL1       -0.2701
     19 N         138.6637  142.1822  153.0029 N.am    1  UNL1       -0.2989
     20 C         138.8482  140.7376  152.6432 C.3     1  UNL1        0.1161
     21 C         139.2595  139.2972  152.7222 C.3     1  UNL1        0.1487
     22 N         139.8527  138.0170  153.2313 N.ar    1  UNL1       -0.2477
     23 C         140.5638  137.0359  154.1154 C.ar    1  UNL1        0.0967
     24 C         141.3156  136.4599  155.2785 C.ar    1  UNL1        0.0397
     25 C         140.9688  135.5330  154.1514 C.ar    1  UNL1        0.1216
     26 N         140.2272  136.3223  153.1136 N.ar    1  UNL1       -0.1676
     27 C         142.0267  136.3516  156.5949 C.ar    1  UNL1        0.0060
     28 C         142.1300  134.9410  156.0953 C.ar    1  UNL1        0.0208
     29 C         142.8265  133.9015  156.9226 C.ar    1  UNL1        0.0988
     30 N         143.4198  134.2727  158.2494 N.ar    1  UNL1       -0.2438
     31 C         143.3166  135.6832  158.7489 C.ar    1  UNL1        0.0813
     32 C         143.9347  136.2028  160.1971 C.ar    1  UNL1        0.0191
     33 C         143.8886  137.5798  160.7901 C.ar    1  UNL1        0.0016
     34 C         143.2157  138.6948  160.0459 C.ar    1  UNL1        0.0016
     35 C         143.0312  137.5330  159.1151 C.ar    1  UNL1        0.0015
     36 C         142.6200  136.7227  157.9216 C.ar    1  UNL1        0.0178
     37 H         141.8415  144.7815  160.4122 H       1  UNL1        0.1739
     38 H         138.1719  142.4861  152.2060 H       1  UNL1        0.1498
     39 C         143.7827  144.8743  163.5868 C.3     1  UNL1        0.2543
     40 O         142.9305  144.5504  162.3957 O.3     1  UNL1       -0.4553
@<TRIPOS>BOND
     1    39    40    1
     2    40     1    1
     3     1     2   ar
     4     2     3   ar
     5     3     4   ar
     6     4     5   ar
     7     5     6   ar
     8     6     7    1
     9     7     8    1
    10     8     9    2
    11     8    10    2
    12     8    11    1
    13    11    12   ar
    14    12    13   ar
    15    13    14   ar
    16    14    15   ar
    17    15    16   ar
    18    15    17    1
    19    17    18    2
    20    17    19   am
    21    19    20    1
    22    20    21    1
    23    21    22    1
    24    22    23   ar
    25    23    24   ar
    26    24    25   ar
    27    25    26   ar
    28    24    27    1
    29    27    28   ar
    30    28    29   ar
    31    29    30   ar
    32    30    31   ar
    33    31    32   ar
    34    32    33   ar
    35    33    34   ar
    36    34    35   ar
    37    35    36   ar
    38     6     1   ar
    39    16    11   ar
    40    26    22   ar
    41    36    27   ar
    42    34     4    1
    43    36    31   ar
    44     7    37    1
    45    19    38    1
