@<TRIPOS>MOLECULE
*****
 26 29 0 0 0
SMALL
GASTEIGER

@<TRIPOS>ATOM
      1 C         137.5612  141.5157  163.4732 C.3     1  UNL1        0.1822
      2 C         138.3382  141.1579  164.7053 C.ar    1  UNL1        0.0017
      3 C         138.1318  139.8249  165.3615 C.ar    1  UNL1       -0.0029
      4 C         138.9089  139.4671  166.5936 C.ar    1  UNL1       -0.0045
      5 C         139.8923  140.4423  167.1696 C.ar    1  UNL1       -0.0215
      6 C         140.0987  141.7753  166.5135 C.ar    1  UNL1       -0.0045
      7 C         139.3217  142.1331  165.2814 C.ar    1  UNL1       -0.0029
      8 C         140.6694  140.0846  168.4018 C.3     1  UNL1        0.0347
      9 C         141.9425  139.7370  167.6887 C.3     1  UNL1        0.0726
     10 N         142.9518  139.3222  168.7180 N.3     1  UNL1       -0.2972
     11 C         142.3025  139.4134  170.0670 C.3     1  UNL1        0.0689
     12 C         140.8919  139.8846  169.8716 C.3     1  UNL1        0.0211
     13 C         139.5588  140.3574  169.3723 C.3     1  UNL1        0.0072
     14 H         143.7601  139.9432  168.6801 H       1  UNL1        0.1233
     15 S         138.2180  142.2941  162.3720 S.O2    1  UNL1        0.0129
     16 O         138.9624  141.0635  161.9461 O.2     1  UNL1       -0.1683
     17 O         137.4735  143.5247  162.7978 O.2     1  UNL1       -0.1683
     18 C         140.1884  144.6292  159.0682 C.ar    1  UNL1       -0.0224
     19 C         140.3322  145.0774  160.4924 C.ar    1  UNL1       -0.0030
     20 C         139.6754  144.2991  161.5937 C.ar    1  UNL1        0.0180
     21 C         138.8748  143.0725  161.2707 C.ar    1  UNL1        0.1060
     22 C         138.7309  142.6243  159.8465 C.ar    1  UNL1        0.0180
     23 C         139.3877  143.4027  158.7453 C.ar    1  UNL1       -0.0030
     24 C         142.3025  145.2079  157.6734 C.3     1  UNL1        0.0047
     25 C         140.8451  145.4076  157.9670 C.3     1  UNL1        0.0224
     26 C         140.0446  146.3857  157.1593 C.3     1  UNL1        0.0047
@<TRIPOS>BOND
     1    24    25    1
     2    25    26    1
     3    25    18    1
     4    18    19   ar
     5    19    20   ar
     6    20    21   ar
     7    21    15    1
     8    15    16    2
     9    15    17    2
    10    15     1    1
    11     1     2    1
    12     2     3   ar
    13     3     4   ar
    14     4     5   ar
    15     8     5    1
    16     8     9    1
    17     9    10    1
    18    10    11    1
    19    12    11    1
    20    12    13    1
    21     5     6   ar
    22     6     7   ar
    23    21    22   ar
    24    22    23   ar
    25    23    18   ar
    26     7     2   ar
    27    12     8    1
    28    13     8    1
    29    10    14    1
@<TRIPOS>MOLECULE
*****
 26 29 0 0 0
SMALL
GASTEIGER

@<TRIPOS>ATOM
      1 C         137.5903  141.2459  163.2889 C.3     1  UNL1        0.1822
      2 C         138.3364  140.9591  164.5582 C.ar    1  UNL1        0.0017
      3 C         139.2921  141.9739  165.1120 C.ar    1  UNL1       -0.0029
      4 C         140.0382  141.6870  166.3814 C.ar    1  UNL1       -0.0045
      5 C         139.8284  140.3854  167.0968 C.ar    1  UNL1       -0.0215
      6 C         138.8726  139.3707  166.5429 C.ar    1  UNL1       -0.0045
      7 C         138.1266  139.6575  165.2737 C.ar    1  UNL1       -0.0029
      8 C         140.5745  140.0985  168.3662 C.3     1  UNL1        0.0347
      9 C         141.8887  139.7942  167.7101 C.3     1  UNL1        0.0726
     10 N         142.8768  139.4562  168.7869 N.3     1  UNL1       -0.2972
     11 C         142.1734  139.5517  170.1082 C.3     1  UNL1        0.0689
     12 C         140.7505  139.9487  169.8482 C.3     1  UNL1        0.0211
     13 C         139.4163  140.3430  169.2874 C.3     1  UNL1        0.0072
     14 H         143.6556  140.1144  168.7610 H       1  UNL1        0.1233
     15 S         138.2261  142.0816  162.2177 S.O2    1  UNL1        0.0129
     16 O         137.3467  143.2362  162.5965 O.2     1  UNL1       -0.1683
     17 O         139.1056  140.9270  161.8389 O.2     1  UNL1       -0.1683
     18 C         140.1335  144.5887  159.0042 C.ar    1  UNL1       -0.0224
     19 C         140.2628  144.9894  160.4438 C.ar    1  UNL1       -0.0030
     20 C         139.6270  144.1537  161.5150 C.ar    1  UNL1        0.0180
     21 C         138.8619  142.9173  161.1465 C.ar    1  UNL1        0.1060
     22 C         138.7326  142.5166  159.7069 C.ar    1  UNL1        0.0180
     23 C         139.3684  143.3522  158.6357 C.ar    1  UNL1       -0.0030
     24 C         142.2369  145.2940  157.6522 C.3     1  UNL1        0.0047
     25 C         140.7692  145.4243  157.9330 C.3     1  UNL1        0.0224
     26 C         139.9374  146.3904  157.1427 C.3     1  UNL1        0.0047
@<TRIPOS>BOND
     1    24    25    1
     2    25    26    1
     3    25    18    1
     4    18    19   ar
     5    19    20   ar
     6    20    21   ar
     7    21    15    1
     8    15    16    2
     9    15    17    2
    10    15     1    1
    11     1     2    1
    12     2     3   ar
    13     3     4   ar
    14     4     5   ar
    15     8     5    1
    16     8     9    1
    17     9    10    1
    18    10    11    1
    19    12    11    1
    20    12    13    1
    21     5     6   ar
    22     6     7   ar
    23    21    22   ar
    24    22    23   ar
    25    23    18   ar
    26     7     2   ar
    27    12     8    1
    28    13     8    1
    29    10    14    1
@<TRIPOS>MOLECULE
*****
 26 29 0 0 0
SMALL
GASTEIGER

@<TRIPOS>ATOM
      1 C         138.9691  137.6485  164.2318 C.3     1  UNL1        0.1822
      2 C         139.3113  138.4973  165.4202 C.ar    1  UNL1        0.0017
      3 C         140.6699  139.1236  165.5283 C.ar    1  UNL1       -0.0029
      4 C         141.0121  139.9725  166.7168 C.ar    1  UNL1       -0.0045
      5 C         139.9957  140.1949  167.7972 C.ar    1  UNL1       -0.0215
      6 C         138.6370  139.5685  167.6892 C.ar    1  UNL1       -0.0045
      7 C         138.2948  138.7197  166.5007 C.ar    1  UNL1       -0.0029
      8 C         140.3379  141.0437  168.9857 C.3     1  UNL1        0.0347
      9 C         140.2095  139.9485  170.0026 C.3     1  UNL1        0.0726
     10 N         140.5099  140.5313  171.3518 N.3     1  UNL1       -0.2972
     11 C         140.8239  141.9866  171.1686 C.3     1  UNL1        0.0689
     12 C         140.7176  142.3032  169.7063 C.3     1  UNL1        0.0211
     13 C         140.5378  142.3162  168.2172 C.3     1  UNL1        0.0072
     14 H         141.3110  140.0536  171.7646 H       1  UNL1        0.1233
     15 S         139.6863  137.8555  162.9308 S.O2    1  UNL1        0.0129
     16 O         138.7099  138.9335  162.5641 O.2     1  UNL1       -0.1683
     17 O         140.6627  136.7775  163.2975 O.2     1  UNL1       -0.1683
     18 C         141.8380  138.4766  159.0277 C.ar    1  UNL1       -0.0224
     19 C         142.6010  138.0423  160.2438 C.ar    1  UNL1       -0.0030
     20 C         141.8837  137.8352  161.5449 C.ar    1  UNL1        0.0180
     21 C         140.4035  138.0625  161.6297 C.ar    1  UNL1        0.1060
     22 C         139.6405  138.4968  160.4135 C.ar    1  UNL1        0.0180
     23 C         140.3578  138.7039  159.1125 C.ar    1  UNL1       -0.0030
     24 C         142.9081  140.0705  157.2771 C.3     1  UNL1        0.0047
     25 C         142.5552  138.6836  157.7266 C.3     1  UNL1        0.0224
     26 C         142.9196  137.5038  156.8751 C.3     1  UNL1        0.0047
@<TRIPOS>BOND
     1    24    25    1
     2    25    26    1
     3    25    18    1
     4    18    19   ar
     5    19    20   ar
     6    20    21   ar
     7    21    15    1
     8    15    16    2
     9    15    17    2
    10    15     1    1
    11     1     2    1
    12     2     3   ar
    13     3     4   ar
    14     4     5   ar
    15     8     5    1
    16     8     9    1
    17     9    10    1
    18    10    11    1
    19    12    11    1
    20    12    13    1
    21     5     6   ar
    22     6     7   ar
    23    21    22   ar
    24    22    23   ar
    25    23    18   ar
    26     7     2   ar
    27    12     8    1
    28    13     8    1
    29    10    14    1
@<TRIPOS>MOLECULE
*****
 26 29 0 0 0
SMALL
GASTEIGER

@<TRIPOS>ATOM
      1 C         139.1011  137.6547  163.5047 C.3     1  UNL1        0.1822
      2 C         139.3227  138.5430  164.6929 C.ar    1  UNL1        0.0017
      3 C         140.4494  139.5331  164.6894 C.ar    1  UNL1       -0.0029
      4 C         140.6709  140.4214  165.8777 C.ar    1  UNL1       -0.0045
      5 C         139.7657  140.3196  167.0693 C.ar    1  UNL1       -0.0215
      6 C         138.6389  139.3294  167.0728 C.ar    1  UNL1       -0.0045
      7 C         138.4174  138.4412  165.8846 C.ar    1  UNL1       -0.0029
      8 C         139.9872  141.2079  168.2576 C.3     1  UNL1        0.0347
      9 C         139.3086  140.3123  169.2514 C.3     1  UNL1        0.0726
     10 N         139.3786  140.9746  170.5955 N.3     1  UNL1       -0.2972
     11 C         140.1004  142.2793  170.4324 C.3     1  UNL1        0.0689
     12 C         140.4765  142.4235  168.9875 C.3     1  UNL1        0.0211
     13 C         140.7120  142.2890  167.5122 C.3     1  UNL1        0.0072
     14 H         139.8855  140.3780  171.2494 H       1  UNL1        0.1233
     15 S         139.0527  138.2442  162.1262 S.O2    1  UNL1        0.0129
     16 O         140.3323  137.5418  161.7809 O.2     1  UNL1       -0.1683
     17 O         137.7731  138.9466  162.4716 O.2     1  UNL1       -0.1683
     18 C         138.9073  140.0126  157.9908 C.ar    1  UNL1       -0.0224
     19 C         137.9061  140.4374  159.0238 C.ar    1  UNL1       -0.0030
     20 C         137.9545  139.8479  160.4023 C.ar    1  UNL1        0.0180
     21 C         139.0042  138.8337  160.7478 C.ar    1  UNL1        0.1060
     22 C         140.0054  138.4089  159.7148 C.ar    1  UNL1        0.0180
     23 C         139.9570  138.9983  158.3363 C.ar    1  UNL1       -0.0030
     24 C         139.2842  139.7821  155.4306 C.3     1  UNL1        0.0047
     25 C         138.8588  140.6021  156.6124 C.3     1  UNL1        0.0224
     26 C         138.3850  142.0116  156.4156 C.3     1  UNL1        0.0047
@<TRIPOS>BOND
     1    24    25    1
     2    25    26    1
     3    25    18    1
     4    18    19   ar
     5    19    20   ar
     6    20    21   ar
     7    21    15    1
     8    15    16    2
     9    15    17    2
    10    15     1    1
    11     1     2    1
    12     2     3   ar
    13     3     4   ar
    14     4     5   ar
    15     8     5    1
    16     8     9    1
    17     9    10    1
    18    10    11    1
    19    12    11    1
    20    12    13    1
    21     5     6   ar
    22     6     7   ar
    23    21    22   ar
    24    22    23   ar
    25    23    18   ar
    26     7     2   ar
    27    12     8    1
    28    13     8    1
    29    10    14    1
@<TRIPOS>MOLECULE
*****
 26 29 0 0 0
SMALL
GASTEIGER

@<TRIPOS>ATOM
      1 C         139.1428  137.5186  163.6702 C.3     1  UNL1        0.1822
      2 C         139.2999  138.3769  164.8902 C.ar    1  UNL1        0.0017
      3 C         138.2861  138.3050  165.9935 C.ar    1  UNL1       -0.0029
      4 C         138.4433  139.1634  167.2136 C.ar    1  UNL1       -0.0045
      5 C         139.6141  140.0937  167.3304 C.ar    1  UNL1       -0.0215
      6 C         140.6278  140.1656  166.2271 C.ar    1  UNL1       -0.0045
      7 C         140.4708  139.3073  165.0071 C.ar    1  UNL1       -0.0029
      8 C         139.7712  140.9521  168.5504 C.3     1  UNL1        0.0347
      9 C         140.5928  142.0177  167.8875 C.3     1  UNL1        0.0726
     10 N         140.9148  143.0614  168.9157 N.3     1  UNL1       -0.2972
     11 C         140.2923  142.6408  170.2139 C.3     1  UNL1        0.0689
     12 C         139.5856  141.3371  169.9882 C.3     1  UNL1        0.0211
     13 C         138.9826  140.0659  169.4683 C.3     1  UNL1        0.0072
     14 H         140.5346  143.9623  168.6254 H       1  UNL1        0.1233
     15 S         139.1308  138.1464  162.3080 S.O2    1  UNL1        0.0129
     16 O         140.4563  137.5132  162.0044 O.2     1  UNL1       -0.1683
     17 O         137.8053  138.7796  162.6115 O.2     1  UNL1       -0.1683
     18 C         139.0948  140.0298  158.2212 C.ar    1  UNL1       -0.0224
     19 C         140.2048  139.0980  158.6078 C.ar    1  UNL1       -0.0030
     20 C         140.2168  138.4702  159.9701 C.ar    1  UNL1        0.0180
     21 C         139.1188  138.7742  160.9457 C.ar    1  UNL1        0.1060
     22 C         138.0088  139.7060  160.5591 C.ar    1  UNL1        0.0180
     23 C         137.9968  140.3338  159.1968 C.ar    1  UNL1       -0.0030
     24 C         139.8324  141.9337  156.6146 C.3     1  UNL1        0.0047
     25 C         139.0828  140.6576  156.8590 C.3     1  UNL1        0.0224
     26 C         138.3212  140.0094  155.7411 C.3     1  UNL1        0.0047
@<TRIPOS>BOND
     1    24    25    1
     2    25    26    1
     3    25    18    1
     4    18    19   ar
     5    19    20   ar
     6    20    21   ar
     7    21    15    1
     8    15    16    2
     9    15    17    2
    10    15     1    1
    11     1     2    1
    12     2     3   ar
    13     3     4   ar
    14     4     5   ar
    15     8     5    1
    16     8     9    1
    17     9    10    1
    18    10    11    1
    19    12    11    1
    20    12    13    1
    21     5     6   ar
    22     6     7   ar
    23    21    22   ar
    24    22    23   ar
    25    23    18   ar
    26     7     2   ar
    27    12     8    1
    28    13     8    1
    29    10    14    1
@<TRIPOS>MOLECULE
*****
 26 29 0 0 0
SMALL
GASTEIGER

@<TRIPOS>ATOM
      1 C         141.3160  137.2810  164.2477 C.3     1  UNL1        0.1822
      2 C         141.0914  138.3401  165.2858 C.ar    1  UNL1        0.0017
      3 C         139.7130  138.8857  165.5146 C.ar    1  UNL1       -0.0029
      4 C         139.4883  139.9449  166.5528 C.ar    1  UNL1       -0.0045
      5 C         140.6421  140.4584  167.3622 C.ar    1  UNL1       -0.0215
      6 C         142.0205  139.9128  167.1334 C.ar    1  UNL1       -0.0045
      7 C         142.2451  138.8537  166.0952 C.ar    1  UNL1       -0.0029
      8 C         140.4175  141.5175  168.4004 C.3     1  UNL1        0.0347
      9 C         139.9002  140.5907  169.4603 C.3     1  UNL1        0.0726
     10 N         139.5773  141.4099  170.6748 N.3     1  UNL1       -0.2972
     11 C         139.8950  142.8428  170.3654 C.3     1  UNL1        0.0689
     12 C         140.4143  142.9093  168.9597 C.3     1  UNL1        0.0211
     13 C         140.8878  142.6656  167.5575 C.3     1  UNL1        0.0072
     14 H         140.1392  141.0936  171.4651 H       1  UNL1        0.1233
     15 S         141.3119  137.6445  162.7924 S.O2    1  UNL1        0.0129
     16 O         139.8784  137.2150  162.6892 O.2     1  UNL1       -0.1683
     17 O         142.7454  138.0739  162.8956 O.2     1  UNL1       -0.1683
     18 C         141.2995  138.7347  158.4264 C.ar    1  UNL1       -0.0224
     19 C         140.0352  138.8326  159.2275 C.ar    1  UNL1       -0.0030
     20 C         140.0393  138.4692  160.6828 C.ar    1  UNL1        0.0180
     21 C         141.3078  138.0079  161.3371 C.ar    1  UNL1        0.1060
     22 C         142.5722  137.9100  160.5360 C.ar    1  UNL1        0.0180
     23 C         142.5680  138.2735  159.0807 C.ar    1  UNL1       -0.0030
     24 C         142.5046  139.7362  156.3540 C.3     1  UNL1        0.0047
     25 C         141.2954  139.0982  156.9711 C.3     1  UNL1        0.0224
     26 C         140.0822  138.8235  156.1330 C.3     1  UNL1        0.0047
@<TRIPOS>BOND
     1    24    25    1
     2    25    26    1
     3    25    18    1
     4    18    19   ar
     5    19    20   ar
     6    20    21   ar
     7    21    15    1
     8    15    16    2
     9    15    17    2
    10    15     1    1
    11     1     2    1
    12     2     3   ar
    13     3     4   ar
    14     4     5   ar
    15     8     5    1
    16     8     9    1
    17     9    10    1
    18    10    11    1
    19    12    11    1
    20    12    13    1
    21     5     6   ar
    22     6     7   ar
    23    21    22   ar
    24    22    23   ar
    25    23    18   ar
    26     7     2   ar
    27    12     8    1
    28    13     8    1
    29    10    14    1
@<TRIPOS>MOLECULE
*****
 26 29 0 0 0
SMALL
GASTEIGER

@<TRIPOS>ATOM
      1 C         143.6090  143.2786  163.5836 C.3     1  UNL1        0.1822
      2 C         142.8160  142.9199  164.8052 C.ar    1  UNL1        0.0017
      3 C         141.3457  143.2125  164.8576 C.ar    1  UNL1       -0.0029
      4 C         140.5527  142.8538  166.0793 C.ar    1  UNL1       -0.0045
      5 C         141.2299  142.2025  167.2485 C.ar    1  UNL1       -0.0215
      6 C         142.7001  141.9099  167.1962 C.ar    1  UNL1       -0.0045
      7 C         143.4932  142.2686  165.9746 C.ar    1  UNL1       -0.0029
      8 C         140.4368  141.8438  168.4702 C.3     1  UNL1        0.0347
      9 C         140.0327  140.4781  167.9993 C.3     1  UNL1        0.0726
     10 N         139.1898  139.8496  169.0692 N.3     1  UNL1       -0.2972
     11 C         139.0731  140.8267  170.2012 C.3     1  UNL1        0.0689
     12 C         139.8437  142.0592  169.8310 C.3     1  UNL1        0.0211
     13 C         140.6752  143.1344  169.1964 C.3     1  UNL1        0.0072
     14 H         139.6312  138.9906  169.3975 H       1  UNL1        0.1233
     15 S         142.9032  143.6231  162.3057 S.O2    1  UNL1        0.0129
     16 O         142.7171  142.1634  162.0149 O.2     1  UNL1       -0.1683
     17 O         143.0894  145.0829  162.5964 O.2     1  UNL1       -0.1683
     18 C         140.7858  144.6567  158.4718 C.ar    1  UNL1       -0.0224
     19 C         141.9100  143.6637  158.4636 C.ar    1  UNL1       -0.0030
     20 C         142.6158  143.3192  159.7415 C.ar    1  UNL1        0.0180
     21 C         142.1974  143.9677  161.0277 C.ar    1  UNL1        0.1060
     22 C         141.0732  144.9606  161.0360 C.ar    1  UNL1        0.0180
     23 C         140.3674  145.3052  159.7580 C.ar    1  UNL1       -0.0030
     24 C         139.4056  143.9250  156.3959 C.3     1  UNL1        0.0047
     25 C         140.0800  145.0013  157.1939 C.3     1  UNL1        0.0224
     26 C         140.0487  146.4220  156.7139 C.3     1  UNL1        0.0047
@<TRIPOS>BOND
     1    24    25    1
     2    25    26    1
     3    25    18    1
     4    18    19   ar
     5    19    20   ar
     6    20    21   ar
     7    21    15    1
     8    15    16    2
     9    15    17    2
    10    15     1    1
    11     1     2    1
    12     2     3   ar
    13     3     4   ar
    14     4     5   ar
    15     8     5    1
    16     8     9    1
    17     9    10    1
    18    10    11    1
    19    12    11    1
    20    12    13    1
    21     5     6   ar
    22     6     7   ar
    23    21    22   ar
    24    22    23   ar
    25    23    18   ar
    26     7     2   ar
    27    12     8    1
    28    13     8    1
    29    10    14    1
@<TRIPOS>MOLECULE
*****
 26 29 0 0 0
SMALL
GASTEIGER

@<TRIPOS>ATOM
      1 C         142.4231  138.3948  156.9265 C.3     1  UNL1        0.1822
      2 C         142.9327  138.8945  158.2458 C.ar    1  UNL1        0.0017
      3 C         142.9365  137.9877  159.4406 C.ar    1  UNL1       -0.0029
      4 C         143.4461  138.4875  160.7599 C.ar    1  UNL1       -0.0045
      5 C         143.9519  139.8941  160.8844 C.ar    1  UNL1       -0.0215
      6 C         143.9481  140.8010  159.6896 C.ar    1  UNL1       -0.0045
      7 C         143.4385  140.3012  158.3703 C.ar    1  UNL1       -0.0029
      8 C         144.4615  140.3939  162.2037 C.3     1  UNL1        0.0347
      9 C         144.8338  141.7638  161.7191 C.3     1  UNL1        0.0726
     10 N         145.3990  142.5281  162.8795 N.3     1  UNL1       -0.2972
     11 C         145.3760  141.6307  164.0811 C.3     1  UNL1        0.0689
     12 C         144.7966  140.3116  163.6634 C.3     1  UNL1        0.0211
     13 C         144.1958  139.1285  162.9640 C.3     1  UNL1        0.0072
     14 H         144.8327  143.3578  163.0563 H       1  UNL1        0.1233
     15 S         142.3558  136.9205  156.6582 S.O2    1  UNL1        0.0129
     16 O         143.8307  136.9029  156.3854 O.2     1  UNL1       -0.1683
     17 O         140.8810  136.9382  156.9310 O.2     1  UNL1       -0.1683
     18 C         142.1540  132.4977  155.8533 C.ar    1  UNL1       -0.0224
     19 C         141.2786  133.4410  155.0827 C.ar    1  UNL1       -0.0030
     20 C         141.3459  134.9153  155.3510 C.ar    1  UNL1        0.0180
     21 C         142.2886  135.4463  156.3899 C.ar    1  UNL1        0.1060
     22 C         143.1640  134.5030  157.1605 C.ar    1  UNL1        0.0180
     23 C         143.0967  133.0287  156.8922 C.ar    1  UNL1       -0.0030
     24 C         143.1691  130.1183  156.0940 C.3     1  UNL1        0.0047
     25 C         142.0867  131.0234  155.5850 C.3     1  UNL1        0.0224
     26 C         140.9370  130.4543  154.8077 C.3     1  UNL1        0.0047
@<TRIPOS>BOND
     1    24    25    1
     2    25    26    1
     3    25    18    1
     4    18    19   ar
     5    19    20   ar
     6    20    21   ar
     7    21    15    1
     8    15    16    2
     9    15    17    2
    10    15     1    1
    11     1     2    1
    12     2     3   ar
    13     3     4   ar
    14     4     5   ar
    15     8     5    1
    16     8     9    1
    17     9    10    1
    18    10    11    1
    19    12    11    1
    20    12    13    1
    21     5     6   ar
    22     6     7   ar
    23    21    22   ar
    24    22    23   ar
    25    23    18   ar
    26     7     2   ar
    27    12     8    1
    28    13     8    1
    29    10    14    1
@<TRIPOS>MOLECULE
*****
 26 29 0 0 0
SMALL
GASTEIGER

@<TRIPOS>ATOM
      1 C         144.7359  140.2739  163.2865 C.3     1  UNL1        0.1822
      2 C         143.9064  140.2279  164.5354 C.ar    1  UNL1        0.0017
      3 C         143.3447  141.4946  165.1097 C.ar    1  UNL1       -0.0029
      4 C         142.5152  141.4486  166.3587 C.ar    1  UNL1       -0.0045
      5 C         142.2475  140.1360  167.0334 C.ar    1  UNL1       -0.0215
      6 C         142.8092  138.8692  166.4591 C.ar    1  UNL1       -0.0045
      7 C         143.6387  138.9152  165.2101 C.ar    1  UNL1       -0.0029
      8 C         141.4180  140.0900  168.2824 C.3     1  UNL1        0.0347
      9 C         142.5145  139.5993  169.1807 C.3     1  UNL1        0.0726
     10 N         141.9505  139.4528  170.5629 N.3     1  UNL1       -0.2972
     11 C         140.5055  139.8528  170.5188 C.3     1  UNL1        0.0689
     12 C         140.1765  140.2466  169.1093 C.3     1  UNL1        0.0211
     13 C         140.1482  140.5709  167.6451 C.3     1  UNL1        0.0072
     14 H         142.4574  140.0572  171.2095 H       1  UNL1        0.1233
     15 S         144.2867  141.1000  162.1179 S.O2    1  UNL1        0.0129
     16 O         145.5137  141.9528  162.2492 O.2     1  UNL1       -0.1683
     17 O         143.0598  140.2472  161.9865 O.2     1  UNL1       -0.1683
     18 C         142.9394  143.5785  158.6119 C.ar    1  UNL1       -0.0224
     19 C         144.0512  142.5855  158.4453 C.ar    1  UNL1       -0.0030
     20 C         144.5003  141.7594  159.6140 C.ar    1  UNL1        0.0180
     21 C         143.8376  141.9262  160.9492 C.ar    1  UNL1        0.1060
     22 C         142.7258  142.9192  161.1158 C.ar    1  UNL1        0.0180
     23 C         142.2767  143.7454  159.9472 C.ar    1  UNL1       -0.0030
     24 C         142.5079  143.8214  156.0615 C.3     1  UNL1        0.0047
     25 C         142.4903  144.4047  157.4433 C.3     1  UNL1        0.0224
     26 C         142.0236  145.8142  157.6564 C.3     1  UNL1        0.0047
@<TRIPOS>BOND
     1    24    25    1
     2    25    26    1
     3    25    18    1
     4    18    19   ar
     5    19    20   ar
     6    20    21   ar
     7    21    15    1
     8    15    16    2
     9    15    17    2
    10    15     1    1
    11     1     2    1
    12     2     3   ar
    13     3     4   ar
    14     4     5   ar
    15     8     5    1
    16     8     9    1
    17     9    10    1
    18    10    11    1
    19    12    11    1
    20    12    13    1
    21     5     6   ar
    22     6     7   ar
    23    21    22   ar
    24    22    23   ar
    25    23    18   ar
    26     7     2   ar
    27    12     8    1
    28    13     8    1
    29    10    14    1
