@<TRIPOS>MOLECULE
*****
 32 35 0 0 0
SMALL
GASTEIGER

@<TRIPOS>ATOM
      1 C         140.0581  141.5764  164.0817 C.3     1  UNL1        0.1753
      2 C         139.6465  140.2066  163.6297 C.ar    1  UNL1        0.0089
      3 C         139.5006  139.6016  162.2650 C.ar    1  UNL1       -0.0021
      4 C         139.0617  138.1746  162.1202 C.ar    1  UNL1       -0.0003
      5 C         138.7688  137.3526  163.3402 C.ar    1  UNL1        0.0001
      6 C         138.9146  137.9576  164.7050 C.ar    1  UNL1        0.0043
      7 C         139.3535  139.3846  164.8498 C.ar    1  UNL1        0.0517
      8 C         139.5840  140.2464  166.0557 C.2     1  UNL1        0.2496
      9 O         139.4096  139.8271  167.4853 O.2     1  UNL1       -0.2699
     10 N         140.0195  141.6010  165.5810 N.am    1  UNL1       -0.2620
     11 N         139.4183  143.3417  162.2859 N.am    1  UNL1       -0.3059
     12 C         140.4410  142.7207  163.1907 C.2     1  UNL1        0.2448
     13 O         141.8466  143.2441  163.2043 O.2     1  UNL1       -0.2729
     14 H         138.4957  142.9982  162.2769 H       1  UNL1        0.1494
     15 C         139.4454  145.4535  162.4846 C.3     1  UNL1        0.0196
     16 C         139.8013  144.4860  161.3949 C.3     1  UNL1        0.0569
     17 C         140.1570  143.5185  160.3053 C.3     1  UNL1        0.0196
     18 C         140.1842  145.6303  160.5040 C.3     1  UNL1        0.0196
     19 C         140.3571  142.7742  166.4525 C.3     1  UNL1        0.1212
     20 C         141.0391  142.5575  167.7708 C.ar    1  UNL1       -0.0001
     21 C         140.2772  142.7453  169.0492 C.ar    1  UNL1        0.0270
     22 C         140.9592  142.5287  170.3675 C.ar    1  UNL1        0.1399
     23 F         140.1973  142.7165  171.6460 F       1  UNL1       -0.2042
     24 C         142.4031  142.1242  170.4074 C.ar    1  UNL1        0.0296
     25 C         143.1650  141.9364  169.1291 C.ar    1  UNL1        0.0020
     26 C         142.4830  142.1531  167.8107 C.ar    1  UNL1       -0.0022
     27 C         143.2448  141.9653  166.5324 C.ar    1  UNL1       -0.0002
     28 C         143.2189  140.6392  165.8317 C.ar    1  UNL1       -0.0000
     29 C         143.9808  140.4514  164.5533 C.ar    1  UNL1       -0.0000
     30 C         144.7687  141.5897  163.9756 C.ar    1  UNL1       -0.0000
     31 C         144.7946  142.9157  164.6763 C.ar    1  UNL1       -0.0000
     32 C         144.0326  143.1035  165.9547 C.ar    1  UNL1       -0.0000
@<TRIPOS>BOND
     1    15    16    1
     2    16    17    1
     3    16    18    1
     4    16    11    1
     5    11    12   am
     6    12    13    2
     7    12     1    1
     8     1     2    1
     9     2     3   ar
    10     3     4   ar
    11     4     5   ar
    12     5     6   ar
    13     6     7   ar
    14     7     8    1
    15     8     9    2
    16     8    10   am
    17    10    19    1
    18    19    20    1
    19    20    21   ar
    20    21    22   ar
    21    22    23    1
    22    22    24   ar
    23    24    25   ar
    24    25    26   ar
    25    26    27    1
    26    27    28   ar
    27    28    29   ar
    28    29    30   ar
    29    30    31   ar
    30    31    32   ar
    31    10     1    1
    32    26    20   ar
    33    32    27   ar
    34     7     2   ar
    35    11    14    1
@<TRIPOS>MOLECULE
*****
 32 35 0 0 0
SMALL
GASTEIGER

@<TRIPOS>ATOM
      1 C         141.5621  141.1201  166.4803 C.3     1  UNL1        0.1753
      2 C         141.9533  140.9550  167.9189 C.ar    1  UNL1        0.0089
      3 C         143.1770  141.3704  168.6803 C.ar    1  UNL1       -0.0021
      4 C         143.2904  141.0617  170.1438 C.ar    1  UNL1       -0.0003
      5 C         142.1802  140.3375  170.8458 C.ar    1  UNL1        0.0001
      6 C         140.9564  139.9221  170.0844 C.ar    1  UNL1        0.0043
      7 C         140.8430  140.2308  168.6209 C.ar    1  UNL1        0.0517
      8 C         139.7656  139.9485  167.6162 C.2     1  UNL1        0.2496
      9 O         138.4711  139.2407  167.8869 O.2     1  UNL1       -0.2699
     10 N         140.2100  140.4981  166.2931 N.am    1  UNL1       -0.2620
     11 N         142.2875  143.2745  165.2222 N.am    1  UNL1       -0.3059
     12 C         142.3795  141.7898  165.4156 C.2     1  UNL1        0.2448
     13 O         143.2888  140.9750  164.5445 O.2     1  UNL1       -0.2729
     14 H         141.6906  143.8094  165.7939 H       1  UNL1        0.1494
     15 C         141.9299  143.8976  163.2262 C.3     1  UNL1        0.0196
     16 C         143.1049  143.9442  164.1576 C.3     1  UNL1        0.0569
     17 C         144.2798  143.9907  165.0889 C.3     1  UNL1        0.0196
     18 C         143.9222  144.6138  163.0930 C.3     1  UNL1        0.0196
     19 C         139.4380  140.4365  165.0085 C.3     1  UNL1        0.1212
     20 C         138.8710  141.6911  164.4133 C.ar    1  UNL1       -0.0001
     21 C         138.5912  142.8767  165.2887 C.ar    1  UNL1        0.0270
     22 C         138.0243  144.1313  164.6935 C.ar    1  UNL1        0.1399
     23 F         137.7445  145.3169  165.5689 F       1  UNL1       -0.2042
     24 C         137.7371  144.2006  163.2229 C.ar    1  UNL1        0.0296
     25 C         138.0169  143.0151  162.3475 C.ar    1  UNL1        0.0020
     26 C         138.5839  141.7603  162.9427 C.ar    1  UNL1       -0.0022
     27 C         138.8637  140.5749  162.0673 C.ar    1  UNL1       -0.0002
     28 C         137.9083  139.4188  162.0424 C.ar    1  UNL1       -0.0000
     29 C         138.1880  138.2333  161.1670 C.ar    1  UNL1       -0.0000
     30 C         139.4233  138.2039  160.3164 C.ar    1  UNL1       -0.0000
     31 C         140.3787  139.3600  160.3413 C.ar    1  UNL1       -0.0000
     32 C         140.0989  140.5455  161.2168 C.ar    1  UNL1       -0.0000
@<TRIPOS>BOND
     1    15    16    1
     2    16    17    1
     3    16    18    1
     4    16    11    1
     5    11    12   am
     6    12    13    2
     7    12     1    1
     8     1     2    1
     9     2     3   ar
    10     3     4   ar
    11     4     5   ar
    12     5     6   ar
    13     6     7   ar
    14     7     8    1
    15     8     9    2
    16     8    10   am
    17    10    19    1
    18    19    20    1
    19    20    21   ar
    20    21    22   ar
    21    22    23    1
    22    22    24   ar
    23    24    25   ar
    24    25    26   ar
    25    26    27    1
    26    27    28   ar
    27    28    29   ar
    28    29    30   ar
    29    30    31   ar
    30    31    32   ar
    31    10     1    1
    32    26    20   ar
    33    32    27   ar
    34     7     2   ar
    35    11    14    1
@<TRIPOS>MOLECULE
*****
 32 35 0 0 0
SMALL
GASTEIGER

@<TRIPOS>ATOM
      1 C         140.9245  141.4943  166.6820 C.3     1  UNL1        0.1753
      2 C         141.1022  141.8985  168.1155 C.ar    1  UNL1        0.0089
      3 C         140.5632  143.0531  168.9069 C.ar    1  UNL1       -0.0021
      4 C         140.9210  143.2011  170.3561 C.ar    1  UNL1       -0.0003
      5 C         141.8177  142.1945  171.0138 C.ar    1  UNL1        0.0001
      6 C         142.3566  141.0399  170.2224 C.ar    1  UNL1        0.0043
      7 C         141.9989  140.8919  168.7733 C.ar    1  UNL1        0.0517
      8 C         142.3754  139.8656  167.7462 C.2     1  UNL1        0.2496
      9 O         143.2606  138.6758  167.9720 O.2     1  UNL1       -0.2699
     10 N         141.7115  140.2379  166.4537 N.am    1  UNL1       -0.2620
     11 N         140.5107  143.5901  165.2033 N.am    1  UNL1       -0.3059
     12 C         140.1040  142.2193  165.6567 C.2     1  UNL1        0.2448
     13 O         138.8770  141.5735  165.0848 O.2     1  UNL1       -0.2729
     14 H         141.3160  144.0140  165.5787 H       1  UNL1        0.1494
     15 C         140.6111  143.8298  163.0980 C.3     1  UNL1        0.0196
     16 C         139.6901  144.3151  164.1780 C.3     1  UNL1        0.0569
     17 C         138.7693  144.8004  165.2581 C.3     1  UNL1        0.0196
     18 C         138.8697  145.0400  163.1528 C.3     1  UNL1        0.0196
     19 C         141.8161  139.4858  165.1601 C.3     1  UNL1        0.1212
     20 C         142.6681  140.0214  164.0479 C.ar    1  UNL1       -0.0001
     21 C         144.0695  140.4766  164.3292 C.ar    1  UNL1        0.0270
     22 C         144.9216  141.0122  163.2170 C.ar    1  UNL1        0.1399
     23 F         146.3229  141.4674  163.4983 F       1  UNL1       -0.2042
     24 C         144.3723  141.0928  161.8235 C.ar    1  UNL1        0.0296
     25 C         142.9710  140.6377  161.5422 C.ar    1  UNL1        0.0020
     26 C         142.1189  140.1020  162.6544 C.ar    1  UNL1       -0.0022
     27 C         140.7176  139.6469  162.3731 C.ar    1  UNL1       -0.0002
     28 C         139.6837  140.6363  161.9235 C.ar    1  UNL1       -0.0000
     29 C         138.2824  140.1812  161.6422 C.ar    1  UNL1       -0.0000
     30 C         137.9149  138.7366  161.8105 C.ar    1  UNL1       -0.0000
     31 C         138.9488  137.7472  162.2601 C.ar    1  UNL1       -0.0000
     32 C         140.3502  138.2024  162.5414 C.ar    1  UNL1       -0.0000
@<TRIPOS>BOND
     1    15    16    1
     2    16    17    1
     3    16    18    1
     4    16    11    1
     5    11    12   am
     6    12    13    2
     7    12     1    1
     8     1     2    1
     9     2     3   ar
    10     3     4   ar
    11     4     5   ar
    12     5     6   ar
    13     6     7   ar
    14     7     8    1
    15     8     9    2
    16     8    10   am
    17    10    19    1
    18    19    20    1
    19    20    21   ar
    20    21    22   ar
    21    22    23    1
    22    22    24   ar
    23    24    25   ar
    24    25    26   ar
    25    26    27    1
    26    27    28   ar
    27    28    29   ar
    28    29    30   ar
    29    30    31   ar
    30    31    32   ar
    31    10     1    1
    32    26    20   ar
    33    32    27   ar
    34     7     2   ar
    35    11    14    1
@<TRIPOS>MOLECULE
*****
 32 35 0 0 0
SMALL
GASTEIGER

@<TRIPOS>ATOM
      1 C         141.2988  141.7869  166.5530 C.3     1  UNL1        0.1753
      2 C         141.3559  142.0865  168.0217 C.ar    1  UNL1        0.0089
      3 C         140.8101  143.2215  168.8364 C.ar    1  UNL1       -0.0021
      4 C         141.0293  143.2530  170.3200 C.ar    1  UNL1       -0.0003
      5 C         141.7942  142.1495  170.9887 C.ar    1  UNL1        0.0001
      6 C         142.3399  141.0145  170.1740 C.ar    1  UNL1        0.0043
      7 C         142.1208  140.9830  168.6904 C.ar    1  UNL1        0.0517
      8 C         142.5365  140.0015  167.6351 C.2     1  UNL1        0.2496
      9 O         143.3222  138.7439  167.8611 O.2     1  UNL1       -0.2699
     10 N         142.0285  140.4983  166.3140 N.am    1  UNL1       -0.2620
     11 N         139.1343  142.6277  165.3876 N.am    1  UNL1       -0.3059
     12 C         140.6296  142.6282  165.5069 C.2     1  UNL1        0.2448
     13 O         141.4555  143.4701  164.5802 O.2     1  UNL1       -0.2729
     14 H         138.5921  142.0751  165.9959 H       1  UNL1        0.1494
     15 C         138.4323  142.2902  163.4145 C.3     1  UNL1        0.0196
     16 C         138.4650  143.4690  164.3416 C.3     1  UNL1        0.0569
     17 C         138.4978  144.6478  165.2687 C.3     1  UNL1        0.0196
     18 C         137.7958  144.3103  163.2955 C.3     1  UNL1        0.0196
     19 C         142.2170  139.8248  164.9871 C.3     1  UNL1        0.1212
     20 C         141.0823  139.0692  164.3615 C.ar    1  UNL1       -0.0001
     21 C         140.1300  138.2958  165.2247 C.ar    1  UNL1        0.0270
     22 C         138.9952  137.5402  164.5992 C.ar    1  UNL1        0.1399
     23 F         138.0429  136.7669  165.4624 F       1  UNL1       -0.2042
     24 C         138.8127  137.5580  163.1104 C.ar    1  UNL1        0.0296
     25 C         139.7649  138.3313  162.2472 C.ar    1  UNL1        0.0020
     26 C         140.8997  139.0870  162.8728 C.ar    1  UNL1       -0.0022
     27 C         141.8520  139.8603  162.0096 C.ar    1  UNL1       -0.0002
     28 C         141.5915  141.3080  161.7159 C.ar    1  UNL1       -0.0000
     29 C         142.5437  142.0813  160.8527 C.ar    1  UNL1       -0.0000
     30 C         143.7565  141.4070  160.2831 C.ar    1  UNL1       -0.0000
     31 C         144.0171  139.9593  160.5768 C.ar    1  UNL1       -0.0000
     32 C         143.0647  139.1859  161.4401 C.ar    1  UNL1       -0.0000
@<TRIPOS>BOND
     1    15    16    1
     2    16    17    1
     3    16    18    1
     4    16    11    1
     5    11    12   am
     6    12    13    2
     7    12     1    1
     8     1     2    1
     9     2     3   ar
    10     3     4   ar
    11     4     5   ar
    12     5     6   ar
    13     6     7   ar
    14     7     8    1
    15     8     9    2
    16     8    10   am
    17    10    19    1
    18    19    20    1
    19    20    21   ar
    20    21    22   ar
    21    22    23    1
    22    22    24   ar
    23    24    25   ar
    24    25    26   ar
    25    26    27    1
    26    27    28   ar
    27    28    29   ar
    28    29    30   ar
    29    30    31   ar
    30    31    32   ar
    31    10     1    1
    32    26    20   ar
    33    32    27   ar
    34     7     2   ar
    35    11    14    1
@<TRIPOS>MOLECULE
*****
 32 35 0 0 0
SMALL
GASTEIGER

@<TRIPOS>ATOM
      1 C         140.6314  141.5987  162.6506 C.3     1  UNL1        0.1753
      2 C         140.5156  143.0421  162.2591 C.ar    1  UNL1        0.0089
      3 C         140.7449  143.7504  160.9569 C.ar    1  UNL1       -0.0021
      4 C         140.5458  145.2342  160.8650 C.ar    1  UNL1       -0.0003
      5 C         140.1172  146.0098  162.0753 C.ar    1  UNL1        0.0001
      6 C         139.8878  145.3015  163.3775 C.ar    1  UNL1        0.0043
      7 C         140.0870  143.8177  163.4694 C.ar    1  UNL1        0.0517
      8 C         139.9380  142.8536  164.6088 C.2     1  UNL1        0.2496
      9 O         139.5250  143.2001  166.0086 O.2     1  UNL1       -0.2699
     10 N         140.2744  141.4822  164.1028 N.am    1  UNL1       -0.2620
     11 N         142.3240  139.7430  161.9860 N.am    1  UNL1       -0.3059
     12 C         141.0336  140.4700  161.7482 C.2     1  UNL1        0.2448
     13 O         140.1456  140.0683  160.6081 O.2     1  UNL1       -0.2729
     14 H         142.9069  140.0067  162.7343 H       1  UNL1        0.1494
     15 C         143.5172  139.5703  160.2406 C.3     1  UNL1        0.0196
     16 C         142.7263  138.6143  161.0836 C.3     1  UNL1        0.0569
     17 C         141.9353  137.6585  161.9267 C.3     1  UNL1        0.0196
     18 C         143.1285  137.4857  160.1813 C.3     1  UNL1        0.0196
     19 C         140.2570  140.2166  164.9077 C.3     1  UNL1        0.1212
     20 C         140.5685  140.2561  166.3744 C.ar    1  UNL1       -0.0001
     21 C         139.4610  140.1419  167.3797 C.ar    1  UNL1        0.0270
     22 C         139.7725  140.1815  168.8465 C.ar    1  UNL1        0.1399
     23 F         138.6651  140.0673  169.8518 F       1  UNL1       -0.2042
     24 C         141.1915  140.3353  169.3080 C.ar    1  UNL1        0.0296
     25 C         142.2989  140.4495  168.3028 C.ar    1  UNL1        0.0020
     26 C         141.9874  140.4100  166.8359 C.ar    1  UNL1       -0.0022
     27 C         143.0948  140.5242  165.8307 C.ar    1  UNL1       -0.0002
     28 C         143.5233  141.8743  165.3370 C.ar    1  UNL1       -0.0000
     29 C         144.6307  141.9885  164.3318 C.ar    1  UNL1       -0.0000
     30 C         145.3098  140.7526  163.8202 C.ar    1  UNL1       -0.0000
     31 C         144.8813  139.4026  164.3139 C.ar    1  UNL1       -0.0000
     32 C         143.7738  139.2884  165.3192 C.ar    1  UNL1       -0.0000
@<TRIPOS>BOND
     1    15    16    1
     2    16    17    1
     3    16    18    1
     4    16    11    1
     5    11    12   am
     6    12    13    2
     7    12     1    1
     8     1     2    1
     9     2     3   ar
    10     3     4   ar
    11     4     5   ar
    12     5     6   ar
    13     6     7   ar
    14     7     8    1
    15     8     9    2
    16     8    10   am
    17    10    19    1
    18    19    20    1
    19    20    21   ar
    20    21    22   ar
    21    22    23    1
    22    22    24   ar
    23    24    25   ar
    24    25    26   ar
    25    26    27    1
    26    27    28   ar
    27    28    29   ar
    28    29    30   ar
    29    30    31   ar
    30    31    32   ar
    31    10     1    1
    32    26    20   ar
    33    32    27   ar
    34     7     2   ar
    35    11    14    1
@<TRIPOS>MOLECULE
*****
 32 35 0 0 0
SMALL
GASTEIGER

@<TRIPOS>ATOM
      1 C         141.8686  143.1873  163.3429 C.3     1  UNL1        0.1753
      2 C         141.6274  143.8406  162.0144 C.ar    1  UNL1        0.0089
      3 C         142.3876  143.7979  160.7221 C.ar    1  UNL1       -0.0021
      4 C         141.8938  144.5712  159.5355 C.ar    1  UNL1       -0.0003
      5 C         140.6397  145.3874  159.6413 C.ar    1  UNL1        0.0001
      6 C         139.8794  145.4301  160.9336 C.ar    1  UNL1        0.0043
      7 C         140.3733  144.6568  162.1202 C.ar    1  UNL1        0.0517
      8 C         139.8395  144.5078  163.5140 C.2     1  UNL1        0.2496
      9 O         138.5992  145.1536  164.0569 O.2     1  UNL1       -0.2699
     10 N         140.7636  143.5996  164.2698 N.am    1  UNL1       -0.2620
     11 N         142.8031  140.7968  163.7466 N.am    1  UNL1       -0.3059
     12 C         143.0138  142.2807  163.6846 C.2     1  UNL1        0.2448
     13 O         144.3697  142.8579  163.9643 O.2     1  UNL1       -0.2729
     14 H         141.9131  140.4179  163.5630 H       1  UNL1        0.1494
     15 C         144.4168  139.9457  162.6643 C.3     1  UNL1        0.0196
     16 C         143.9483  139.8903  164.0882 C.3     1  UNL1        0.0569
     17 C         143.4796  139.8349  165.5121 C.3     1  UNL1        0.0196
     18 C         145.0934  138.9838  164.4298 C.3     1  UNL1        0.0196
     19 C         140.6098  143.1777  165.7010 C.3     1  UNL1        0.1212
     20 C         139.9708  141.8613  166.0303 C.ar    1  UNL1       -0.0001
     21 C         139.1244  141.1618  165.0083 C.ar    1  UNL1        0.0270
     22 C         138.4854  139.8454  165.3376 C.ar    1  UNL1        0.1399
     23 F         137.6391  139.1459  164.3155 F       1  UNL1       -0.2042
     24 C         138.6926  139.2283  166.6890 C.ar    1  UNL1        0.0296
     25 C         139.5388  139.9277  167.7111 C.ar    1  UNL1        0.0020
     26 C         140.1779  141.2443  167.3818 C.ar    1  UNL1       -0.0022
     27 C         141.0242  141.9437  168.4038 C.ar    1  UNL1       -0.0002
     28 C         140.4338  143.0352  169.2464 C.ar    1  UNL1       -0.0000
     29 C         141.2800  143.7346  170.2685 C.ar    1  UNL1       -0.0000
     30 C         142.7168  143.3425  170.4480 C.ar    1  UNL1       -0.0000
     31 C         143.3072  142.2510  169.6053 C.ar    1  UNL1       -0.0000
     32 C         142.4608  141.5516  168.5832 C.ar    1  UNL1       -0.0000
@<TRIPOS>BOND
     1    15    16    1
     2    16    17    1
     3    16    18    1
     4    16    11    1
     5    11    12   am
     6    12    13    2
     7    12     1    1
     8     1     2    1
     9     2     3   ar
    10     3     4   ar
    11     4     5   ar
    12     5     6   ar
    13     6     7   ar
    14     7     8    1
    15     8     9    2
    16     8    10   am
    17    10    19    1
    18    19    20    1
    19    20    21   ar
    20    21    22   ar
    21    22    23    1
    22    22    24   ar
    23    24    25   ar
    24    25    26   ar
    25    26    27    1
    26    27    28   ar
    27    28    29   ar
    28    29    30   ar
    29    30    31   ar
    30    31    32   ar
    31    10     1    1
    32    26    20   ar
    33    32    27   ar
    34     7     2   ar
    35    11    14    1
@<TRIPOS>MOLECULE
*****
 32 35 0 0 0
SMALL
GASTEIGER

@<TRIPOS>ATOM
      1 C         138.9660  141.6463  164.2678 C.3     1  UNL1        0.1753
      2 C         139.4941  141.8200  165.6610 C.ar    1  UNL1        0.0089
      3 C         140.1299  142.9880  166.3550 C.ar    1  UNL1       -0.0021
      4 C         140.5674  142.8636  167.7843 C.ar    1  UNL1       -0.0003
      5 C         140.3693  141.5713  168.5196 C.ar    1  UNL1        0.0001
      6 C         139.7336  140.4033  167.8256 C.ar    1  UNL1        0.0043
      7 C         139.2960  140.5277  166.3963 C.ar    1  UNL1        0.0517
      8 C         138.6454  139.5554  165.4575 C.2     1  UNL1        0.2496
      9 O         138.2655  138.1401  165.7780 O.2     1  UNL1       -0.2699
     10 N         138.4414  140.2467  164.1421 N.am    1  UNL1       -0.2620
     11 N         140.2580  143.2702  162.7045 N.am    1  UNL1       -0.3059
     12 C         138.9629  142.6892  163.1897 C.2     1  UNL1        0.2448
     13 O         137.6649  143.1513  162.5968 O.2     1  UNL1       -0.2729
     14 H         141.1100  142.9670  163.0936 H       1  UNL1        0.1494
     15 C         140.1641  145.3891  162.6676 C.3     1  UNL1        0.0196
     16 C         140.2550  144.3131  161.6263 C.3     1  UNL1        0.0569
     17 C         140.3458  143.2371  160.5852 C.3     1  UNL1        0.0196
     18 C         140.2519  145.3560  160.5483 C.3     1  UNL1        0.0196
     19 C         137.8217  139.6442  162.9161 C.3     1  UNL1        0.1212
     20 C         138.5178  139.7552  161.5920 C.ar    1  UNL1       -0.0001
     21 C         137.7691  140.2508  160.3904 C.ar    1  UNL1        0.0270
     22 C         138.4651  140.3618  159.0663 C.ar    1  UNL1        0.1399
     23 F         137.7165  140.8574  157.8646 F       1  UNL1       -0.2042
     24 C         139.9098  139.9773  158.9438 C.ar    1  UNL1        0.0296
     25 C         140.6585  139.4817  160.1454 C.ar    1  UNL1        0.0020
     26 C         139.9625  139.3707  161.4696 C.ar    1  UNL1       -0.0022
     27 C         140.7111  138.8751  162.6712 C.ar    1  UNL1       -0.0002
     28 C         141.6789  139.7781  163.3769 C.ar    1  UNL1       -0.0000
     29 C         142.4275  139.2825  164.5785 C.ar    1  UNL1       -0.0000
     30 C         142.2085  137.8839  165.0744 C.ar    1  UNL1       -0.0000
     31 C         141.2407  136.9809  164.3687 C.ar    1  UNL1       -0.0000
     32 C         140.4920  137.4765  163.1670 C.ar    1  UNL1       -0.0000
@<TRIPOS>BOND
     1    15    16    1
     2    16    17    1
     3    16    18    1
     4    16    11    1
     5    11    12   am
     6    12    13    2
     7    12     1    1
     8     1     2    1
     9     2     3   ar
    10     3     4   ar
    11     4     5   ar
    12     5     6   ar
    13     6     7   ar
    14     7     8    1
    15     8     9    2
    16     8    10   am
    17    10    19    1
    18    19    20    1
    19    20    21   ar
    20    21    22   ar
    21    22    23    1
    22    22    24   ar
    23    24    25   ar
    24    25    26   ar
    25    26    27    1
    26    27    28   ar
    27    28    29   ar
    28    29    30   ar
    29    30    31   ar
    30    31    32   ar
    31    10     1    1
    32    26    20   ar
    33    32    27   ar
    34     7     2   ar
    35    11    14    1
@<TRIPOS>MOLECULE
*****
 32 35 0 0 0
SMALL
GASTEIGER

@<TRIPOS>ATOM
      1 C         141.5446  140.7199  161.9303 C.3     1  UNL1        0.1753
      2 C         140.8047  141.5691  160.9396 C.ar    1  UNL1        0.0089
      3 C         139.4102  141.4891  160.3929 C.ar    1  UNL1       -0.0021
      4 C         138.9381  142.5011  159.3914 C.ar    1  UNL1       -0.0003
      5 C         139.8606  143.5931  158.9367 C.ar    1  UNL1        0.0001
      6 C         141.2551  143.6730  159.4834 C.ar    1  UNL1        0.0043
      7 C         141.7271  142.6610  160.4849 C.ar    1  UNL1        0.0517
      8 C         143.0371  142.4866  161.1945 C.2     1  UNL1        0.2496
      9 O         144.2474  143.3588  161.0382 O.2     1  UNL1       -0.2699
     10 N         142.9243  141.2869  162.0878 N.am    1  UNL1       -0.2620
     11 N         139.8199  139.6530  163.5544 N.am    1  UNL1       -0.3059
     12 C         141.0003  139.5151  162.6390 C.2     1  UNL1        0.2448
     13 O         141.6361  138.1724  162.4324 O.2     1  UNL1       -0.2729
     14 H         139.4025  140.5343  163.6901 H       1  UNL1        0.1494
     15 C         138.5347  138.0521  163.0204 C.3     1  UNL1        0.0196
     16 C         139.2756  138.4483  164.2631 C.3     1  UNL1        0.0569
     17 C         140.0165  138.8445  165.5057 C.3     1  UNL1        0.0196
     18 C         138.7313  137.2435  164.9718 C.3     1  UNL1        0.0196
     19 C         144.0020  140.7488  162.9817 C.3     1  UNL1        0.1212
     20 C         143.6868  140.3883  164.4032 C.ar    1  UNL1       -0.0001
     21 C         143.9911  139.0106  164.9127 C.ar    1  UNL1        0.0270
     22 C         143.6760  138.6502  166.3342 C.ar    1  UNL1        0.1399
     23 F         143.9803  137.2725  166.8438 F       1  UNL1       -0.2042
     24 C         143.0565  139.6673  167.2462 C.ar    1  UNL1        0.0296
     25 C         142.7522  141.0448  166.7367 C.ar    1  UNL1        0.0020
     26 C         143.0673  141.4054  165.3152 C.ar    1  UNL1       -0.0022
     27 C         142.7630  142.7829  164.8057 C.ar    1  UNL1       -0.0002
     28 C         143.8766  143.7624  164.5807 C.ar    1  UNL1       -0.0000
     29 C         143.5722  145.1400  164.0712 C.ar    1  UNL1       -0.0000
     30 C         142.1542  145.5382  163.7867 C.ar    1  UNL1       -0.0000
     31 C         141.0407  144.5587  164.0117 C.ar    1  UNL1       -0.0000
     32 C         141.3451  143.1811  164.5212 C.ar    1  UNL1       -0.0000
@<TRIPOS>BOND
     1    15    16    1
     2    16    17    1
     3    16    18    1
     4    16    11    1
     5    11    12   am
     6    12    13    2
     7    12     1    1
     8     1     2    1
     9     2     3   ar
    10     3     4   ar
    11     4     5   ar
    12     5     6   ar
    13     6     7   ar
    14     7     8    1
    15     8     9    2
    16     8    10   am
    17    10    19    1
    18    19    20    1
    19    20    21   ar
    20    21    22   ar
    21    22    23    1
    22    22    24   ar
    23    24    25   ar
    24    25    26   ar
    25    26    27    1
    26    27    28   ar
    27    28    29   ar
    28    29    30   ar
    29    30    31   ar
    30    31    32   ar
    31    10     1    1
    32    26    20   ar
    33    32    27   ar
    34     7     2   ar
    35    11    14    1
@<TRIPOS>MOLECULE
*****
 32 35 0 0 0
SMALL
GASTEIGER

@<TRIPOS>ATOM
      1 C         140.3580  140.1655  164.0616 C.3     1  UNL1        0.1753
      2 C         139.4851  139.2608  164.8800 C.ar    1  UNL1        0.0089
      3 C         138.9543  137.8808  164.6280 C.ar    1  UNL1       -0.0021
      4 C         138.0856  137.2127  165.6522 C.ar    1  UNL1       -0.0003
      5 C         137.7478  137.9247  166.9284 C.ar    1  UNL1        0.0001
      6 C         138.2786  139.3048  167.1805 C.ar    1  UNL1        0.0043
      7 C         139.1472  139.9729  166.1563 C.ar    1  UNL1        0.0517
      8 C         139.8113  141.3176  166.1266 C.2     1  UNL1        0.2496
      9 O         139.7396  142.3601  167.2027 O.2     1  UNL1       -0.2699
     10 N         140.5596  141.4366  164.8321 N.am    1  UNL1       -0.2620
     11 N         141.9300  138.7472  162.5558 N.am    1  UNL1       -0.3059
     12 C         140.9290  139.8537  162.7101 C.2     1  UNL1        0.2448
     13 O         140.4991  140.6483  161.5127 O.2     1  UNL1       -0.2729
     14 H         142.2122  138.2256  163.3417 H       1  UNL1        0.1494
     15 C         143.8129  139.0315  161.6211 C.3     1  UNL1        0.0196
     16 C         142.5010  138.4354  161.2042 C.3     1  UNL1        0.0569
     17 C         141.1891  137.8394  160.7875 C.3     1  UNL1        0.0196
     18 C         143.0720  138.1237  159.8528 C.3     1  UNL1        0.0196
     19 C         141.3675  142.6192  164.3863 C.3     1  UNL1        0.1212
     20 C         142.7743  142.4269  163.9025 C.ar    1  UNL1       -0.0001
     21 C         143.1667  142.8944  162.5322 C.ar    1  UNL1        0.0270
     22 C         144.5734  142.7022  162.0484 C.ar    1  UNL1        0.1399
     23 F         144.9658  143.1697  160.6781 F       1  UNL1       -0.2042
     24 C         145.5878  142.0425  162.9348 C.ar    1  UNL1        0.0296
     25 C         145.1955  141.5750  164.3050 C.ar    1  UNL1        0.0020
     26 C         143.7887  141.7672  164.7889 C.ar    1  UNL1       -0.0022
     27 C         143.3964  141.2998  166.1591 C.ar    1  UNL1       -0.0002
     28 C         143.1116  139.8474  166.4031 C.ar    1  UNL1       -0.0000
     29 C         142.7193  139.3799  167.7733 C.ar    1  UNL1       -0.0000
     30 C         142.6118  140.3648  168.8996 C.ar    1  UNL1       -0.0000
     31 C         142.8966  141.8172  168.6556 C.ar    1  UNL1       -0.0000
     32 C         143.2889  142.2846  167.2853 C.ar    1  UNL1       -0.0000
@<TRIPOS>BOND
     1    15    16    1
     2    16    17    1
     3    16    18    1
     4    16    11    1
     5    11    12   am
     6    12    13    2
     7    12     1    1
     8     1     2    1
     9     2     3   ar
    10     3     4   ar
    11     4     5   ar
    12     5     6   ar
    13     6     7   ar
    14     7     8    1
    15     8     9    2
    16     8    10   am
    17    10    19    1
    18    19    20    1
    19    20    21   ar
    20    21    22   ar
    21    22    23    1
    22    22    24   ar
    23    24    25   ar
    24    25    26   ar
    25    26    27    1
    26    27    28   ar
    27    28    29   ar
    28    29    30   ar
    29    30    31   ar
    30    31    32   ar
    31    10     1    1
    32    26    20   ar
    33    32    27   ar
    34     7     2   ar
    35    11    14    1
