@<TRIPOS>MOLECULE
*****
 52 57 0 0 0
SMALL
GASTEIGER

@<TRIPOS>ATOM
      1 C         141.4466  143.3575  160.3906 C.3     1  UNL1        0.0840
      2 C         140.5707  144.5628  160.2180 C.3     1  UNL1        0.0376
      3 C         140.7769  145.4786  159.0480 C.3     1  UNL1        0.0738
      4 N         141.8591  145.1890  158.0506 N.3     1  UNL1       -0.2726
      5 C         142.7352  143.9836  158.2232 C.3     1  UNL1        0.0738
      6 C         142.5289  143.0679  159.3932 C.3     1  UNL1        0.0376
      7 N         141.9984  141.5481  163.8795 N.am    1  UNL1       -0.2844
      8 C         142.2047  142.4639  162.7094 C.2     1  UNL1        0.3079
      9 O         143.3752  143.4017  162.6882 O.2     1  UNL1       -0.2522
     10 N         141.2404  142.4418  161.5606 N.am    1  UNL1       -0.2448
     11 H         141.2302  140.9326  163.8934 H       1  UNL1        0.1513
     12 C         140.0699  141.5040  161.5819 C.ar    1  UNL1        0.0574
     13 C         138.7795  141.9293  162.2176 C.ar    1  UNL1        0.0151
     14 C         137.6090  140.9914  162.2388 C.ar    1  UNL1        0.0036
     15 C         137.7289  139.6284  161.6243 C.ar    1  UNL1        0.0297
     16 C         139.0192  139.2031  160.9886 C.ar    1  UNL1        0.1414
     17 F         139.1391  137.8400  160.3741 F       1  UNL1       -0.2041
     18 C         140.1897  140.1409  160.9674 C.ar    1  UNL1        0.0446
     19 C         142.9627  141.5702  165.0282 C.3     1  UNL1        0.1177
     20 C         141.4308  141.9156  169.2453 C.ar    1  UNL1        0.0684
     21 C         142.7755  142.4757  168.8876 C.ar    1  UNL1        0.0100
     22 C         143.2861  142.3606  167.4819 C.ar    1  UNL1       -0.0019
     23 C         142.4520  141.6853  166.4339 C.ar    1  UNL1       -0.0025
     24 C         141.1073  141.1252  166.7916 C.ar    1  UNL1       -0.0019
     25 C         140.5967  141.2403  168.1973 C.ar    1  UNL1        0.0100
     26 N         140.4095  142.1458  172.0567 N.1     1  UNL1       -0.1908
     27 C         140.9201  142.0307  170.6510 C.1     1  UNL1        0.1004
     28 C         142.0654  146.1047  156.8806 C.3     1  UNL1        0.0724
     29 C         141.3978  145.8094  155.5703 C.3     1  UNL1        0.0215
     30 C         140.0173  145.2232  155.5471 C.3     1  UNL1        0.0236
     31 C         140.8322  143.9671  155.6368 C.3     1  UNL1        0.0257
     32 C         140.1500  142.6317  155.6751 C.3     1  UNL1        0.0940
     33 N         138.6531  142.5524  155.6236 N.am    1  UNL1       -0.2761
     34 C         137.9709  141.2170  155.6618 C.2     1  UNL1        0.2490
     35 O         136.4739  141.1379  155.6103 O.2     1  UNL1       -0.2699
     36 C         137.8382  143.8086  155.5339 C.3     1  UNL1        0.0940
     37 C         138.5203  145.1440  155.4957 C.3     1  UNL1        0.0257
     38 C         139.6819  146.6829  155.4655 C.ar    1  UNL1       -0.0204
     39 C         140.0808  147.4777  154.2574 C.ar    1  UNL1       -0.0041
     40 C         139.7454  148.9374  154.1758 C.ar    1  UNL1        0.0020
     41 C         139.0111  149.6024  155.3020 C.ar    1  UNL1        0.0296
     42 C         138.6122  148.8076  156.5101 C.ar    1  UNL1        0.1398
     43 F         137.8779  149.4727  157.6363 F       1  UNL1       -0.2042
     44 C         138.9476  147.3479  156.5918 C.ar    1  UNL1        0.0254
     45 C         138.7858  139.9609  155.7515 C.ar    1  UNL1        0.0536
     46 C         139.1590  139.2183  154.5029 C.ar    1  UNL1        0.0052
     47 C         139.9739  137.9621  154.5926 C.ar    1  UNL1        0.0104
     48 C         140.4156  137.4486  155.9310 C.ar    1  UNL1        0.0685
     49 C         140.0423  138.1913  157.1796 C.ar    1  UNL1        0.0104
     50 C         139.2274  139.4474  157.0899 C.ar    1  UNL1        0.0052
     51 C         141.2305  136.1925  156.0207 C.1     1  UNL1        0.1004
     52 N         142.0454  134.9364  156.1104 N.1     1  UNL1       -0.1908
@<TRIPOS>BOND
     1    26    27    3
     2    27    20    1
     3    20    21   ar
     4    21    22   ar
     5    22    23   ar
     6    23    19    1
     7    19     7    1
     8     7     8   am
     9     8     9    2
    10     8    10   am
    11    10    12    1
    12    12    13   ar
    13    13    14   ar
    14    14    15   ar
    15    15    16   ar
    16    16    17    1
    17    16    18   ar
    18    10     1    1
    19     1     2    1
    20     2     3    1
    21     3     4    1
    22     4    28    1
    23    28    29    1
    24    29    30    1
    25    30    38    1
    26    38    39   ar
    27    39    40   ar
    28    40    41   ar
    29    41    42   ar
    30    42    43    1
    31    42    44   ar
    32    30    31    1
    33    31    32    1
    34    32    33    1
    35    33    34   am
    36    34    35    2
    37    34    45    1
    38    45    46   ar
    39    46    47   ar
    40    47    48   ar
    41    48    51    1
    42    51    52    3
    43    48    49   ar
    44    49    50   ar
    45    33    36    1
    46    36    37    1
    47     4     5    1
    48     5     6    1
    49    23    24   ar
    50    24    25   ar
    51    25    20   ar
    52    18    12   ar
    53     6     1    1
    54    37    30    1
    55    44    38   ar
    56    50    45   ar
    57     7    11    1
@<TRIPOS>MOLECULE
*****
 52 57 0 0 0
SMALL
GASTEIGER

@<TRIPOS>ATOM
      1 C         141.7749  139.5886  157.2130 C.3     1  UNL1        0.0840
      2 C         140.7176  140.5754  156.8156 C.3     1  UNL1        0.0376
      3 C         139.9171  141.2821  157.8691 C.3     1  UNL1        0.0738
      4 N         140.1741  141.0020  159.3201 N.3     1  UNL1       -0.2726
      5 C         141.2315  140.0151  159.7176 C.3     1  UNL1        0.0738
      6 C         142.0320  139.3084  158.6641 C.3     1  UNL1        0.0376
      7 N         143.0238  136.7711  154.7126 N.am    1  UNL1       -0.2844
      8 C         142.2234  137.4778  155.7661 C.2     1  UNL1        0.3079
      9 O         141.0711  136.7804  156.4263 O.2     1  UNL1       -0.2522
     10 N         142.5754  138.8819  156.1595 N.am    1  UNL1       -0.2448
     11 H         143.7801  137.2288  154.2793 H       1  UNL1        0.1513
     12 C         143.7277  139.5792  155.4993 C.ar    1  UNL1        0.0574
     13 C         143.8457  139.5819  154.0040 C.ar    1  UNL1        0.0151
     14 C         144.9981  140.2793  153.3438 C.ar    1  UNL1        0.0036
     15 C         146.0323  140.9740  154.1790 C.ar    1  UNL1        0.0297
     16 C         145.9143  140.9714  155.6744 C.ar    1  UNL1        0.1414
     17 F         146.9486  141.6661  156.5096 F       1  UNL1       -0.2041
     18 C         144.7620  140.2740  156.3345 C.ar    1  UNL1        0.0446
     19 C         142.6719  135.3670  154.3192 C.3     1  UNL1        0.1177
     20 C         144.0090  131.9123  156.8741 C.ar    1  UNL1        0.0684
     21 C         144.2028  133.3199  157.3549 C.ar    1  UNL1        0.0100
     22 C         143.7572  134.4714  156.5033 C.ar    1  UNL1       -0.0019
     23 C         143.1176  134.2155  155.1709 C.ar    1  UNL1       -0.0025
     24 C         142.9238  132.8079  154.6901 C.ar    1  UNL1       -0.0019
     25 C         143.3694  131.6564  155.5417 C.ar    1  UNL1        0.0100
     26 N         144.9004  129.6092  158.5774 N.1     1  UNL1       -0.1908
     27 C         144.4547  130.7608  157.7258 C.1     1  UNL1        0.1004
     28 C         139.3737  141.7087  160.3736 C.3     1  UNL1        0.0724
     29 C         139.7171  143.1175  160.7573 C.3     1  UNL1        0.0215
     30 C         141.0191  143.4123  161.4414 C.3     1  UNL1        0.0236
     31 C         140.2865  142.7301  162.5585 C.3     1  UNL1        0.0257
     32 C         140.9534  142.5440  163.8892 C.3     1  UNL1        0.0940
     33 N         142.3526  143.0403  164.1028 N.am    1  UNL1       -0.2761
     34 C         143.0195  142.8542  165.4335 C.2     1  UNL1        0.2490
     35 O         144.4188  143.3505  165.6471 O.2     1  UNL1       -0.2699
     36 C         143.0852  143.7225  162.9857 C.3     1  UNL1        0.0940
     37 C         142.4183  143.9086  161.6550 C.3     1  UNL1        0.0257
     38 C         141.2994  143.9922  160.0867 C.ar    1  UNL1       -0.0204
     39 C         142.4881  143.5229  159.3014 C.ar    1  UNL1       -0.0041
     40 C         142.7684  144.1028  157.9467 C.ar    1  UNL1        0.0020
     41 C         141.8601  145.1519  157.3774 C.ar    1  UNL1        0.0296
     42 C         140.6713  145.6212  158.1627 C.ar    1  UNL1        0.1398
     43 F         139.7630  146.6703  157.5933 F       1  UNL1       -0.2042
     44 C         140.3910  145.0413  159.5174 C.ar    1  UNL1        0.0254
     45 C         142.2869  142.1720  166.5506 C.ar    1  UNL1        0.0536
     46 C         141.1822  142.8873  167.2701 C.ar    1  UNL1        0.0052
     47 C         140.4496  142.2050  168.3872 C.ar    1  UNL1        0.0104
     48 C         140.8219  140.8073  168.7848 C.ar    1  UNL1        0.0685
     49 C         141.9267  140.0920  168.0653 C.ar    1  UNL1        0.0104
     50 C         142.6593  140.7743  166.9482 C.ar    1  UNL1        0.0052
     51 C         140.0894  140.1251  169.9018 C.1     1  UNL1        0.1004
     52 N         139.3569  139.4428  171.0189 N.1     1  UNL1       -0.1908
@<TRIPOS>BOND
     1    26    27    3
     2    27    20    1
     3    20    21   ar
     4    21    22   ar
     5    22    23   ar
     6    23    19    1
     7    19     7    1
     8     7     8   am
     9     8     9    2
    10     8    10   am
    11    10    12    1
    12    12    13   ar
    13    13    14   ar
    14    14    15   ar
    15    15    16   ar
    16    16    17    1
    17    16    18   ar
    18    10     1    1
    19     1     2    1
    20     2     3    1
    21     3     4    1
    22     4    28    1
    23    28    29    1
    24    29    30    1
    25    30    38    1
    26    38    39   ar
    27    39    40   ar
    28    40    41   ar
    29    41    42   ar
    30    42    43    1
    31    42    44   ar
    32    30    31    1
    33    31    32    1
    34    32    33    1
    35    33    34   am
    36    34    35    2
    37    34    45    1
    38    45    46   ar
    39    46    47   ar
    40    47    48   ar
    41    48    51    1
    42    51    52    3
    43    48    49   ar
    44    49    50   ar
    45    33    36    1
    46    36    37    1
    47     4     5    1
    48     5     6    1
    49    23    24   ar
    50    24    25   ar
    51    25    20   ar
    52    18    12   ar
    53     6     1    1
    54    37    30    1
    55    44    38   ar
    56    50    45   ar
    57     7    11    1
@<TRIPOS>MOLECULE
*****
 52 57 0 0 0
SMALL
GASTEIGER

@<TRIPOS>ATOM
      1 C         139.2267  141.3737  157.2037 C.3     1  UNL1        0.0840
      2 C         138.8522  140.9822  158.6024 C.3     1  UNL1        0.0376
      3 C         139.5045  141.6598  159.7710 C.3     1  UNL1        0.0738
      4 N         140.5311  142.7289  159.5408 N.3     1  UNL1       -0.2726
      5 C         140.9056  143.1204  158.1420 C.3     1  UNL1        0.0738
      6 C         140.2534  142.4428  156.9734 C.3     1  UNL1        0.0376
      7 N         136.5170  140.3751  154.4814 N.am    1  UNL1       -0.2844
      8 C         137.1693  141.0527  155.6500 C.2     1  UNL1        0.3079
      9 O         136.4163  142.0868  156.4333 O.2     1  UNL1       -0.2522
     10 N         138.5745  140.6961  156.0352 N.am    1  UNL1       -0.2448
     11 H         137.0112  139.6963  153.9673 H       1  UNL1        0.1513
     12 C         139.3274  139.6620  155.2518 C.ar    1  UNL1        0.0574
     13 C         140.0793  140.0578  154.0158 C.ar    1  UNL1        0.0151
     14 C         140.8322  139.0236  153.2324 C.ar    1  UNL1        0.0036
     15 C         140.8332  137.5936  153.6852 C.ar    1  UNL1        0.0297
     16 C         140.0813  137.1977  154.9213 C.ar    1  UNL1        0.1414
     17 F         140.0823  135.7677  155.3740 F       1  UNL1       -0.2041
     18 C         139.3284  138.2319  155.7046 C.ar    1  UNL1        0.0446
     19 C         135.1119  140.7316  154.0962 C.3     1  UNL1        0.1177
     20 C         131.6994  139.7265  156.8521 C.ar    1  UNL1        0.0684
     21 C         131.6582  140.9837  156.0349 C.ar    1  UNL1        0.0100
     22 C         132.7957  141.3187  155.1163 C.ar    1  UNL1       -0.0019
     23 C         133.9744  140.3966  155.0149 C.ar    1  UNL1       -0.0025
     24 C         134.0156  139.1395  155.8321 C.ar    1  UNL1       -0.0019
     25 C         132.8782  138.8045  156.7507 C.ar    1  UNL1        0.0100
     26 N         129.4245  139.0565  158.6894 N.1     1  UNL1       -0.1908
     27 C         130.5620  139.3915  157.7708 C.1     1  UNL1        0.1004
     28 C         141.1833  143.4065  160.7093 C.3     1  UNL1        0.0724
     29 C         142.6419  143.1894  160.9838 C.3     1  UNL1        0.0215
     30 C         143.0970  141.9384  161.6751 C.3     1  UNL1        0.0236
     31 C         142.3674  142.6079  162.8018 C.3     1  UNL1        0.0257
     32 C         142.2913  141.9447  164.1451 C.3     1  UNL1        0.0940
     33 N         142.9448  140.6121  164.3617 N.am    1  UNL1       -0.2761
     34 C         142.8687  139.9489  165.7050 C.2     1  UNL1        0.2490
     35 O         143.5223  138.6163  165.9215 O.2     1  UNL1       -0.2699
     36 C         143.6744  139.9426  163.2350 C.3     1  UNL1        0.0940
     37 C         143.7505  140.6058  161.8917 C.3     1  UNL1        0.0257
     38 C         143.6685  141.7034  160.3083 C.ar    1  UNL1       -0.0204
     39 C         144.6490  142.6788  159.7275 C.ar    1  UNL1       -0.0041
     40 C         145.2206  142.4438  158.3608 C.ar    1  UNL1        0.0020
     41 C         144.8116  141.2335  157.5748 C.ar    1  UNL1        0.0296
     42 C         143.8311  140.2581  158.1555 C.ar    1  UNL1        0.1398
     43 F         143.4222  139.0478  157.3694 F       1  UNL1       -0.2042
     44 C         143.2596  140.4931  159.5223 C.ar    1  UNL1        0.0254
     45 C         142.1391  140.6185  166.8317 C.ar    1  UNL1        0.0536
     46 C         142.8268  141.6706  167.6502 C.ar    1  UNL1        0.0052
     47 C         142.0972  142.3402  168.7769 C.ar    1  UNL1        0.0104
     48 C         140.6799  141.9574  169.0850 C.ar    1  UNL1        0.0685
     49 C         139.9923  140.9053  168.2665 C.ar    1  UNL1        0.0104
     50 C         140.7219  140.2358  167.1398 C.ar    1  UNL1        0.0052
     51 C         139.9503  142.6270  170.2117 C.1     1  UNL1        0.1004
     52 N         139.2207  143.2965  171.3384 N.1     1  UNL1       -0.1908
@<TRIPOS>BOND
     1    26    27    3
     2    27    20    1
     3    20    21   ar
     4    21    22   ar
     5    22    23   ar
     6    23    19    1
     7    19     7    1
     8     7     8   am
     9     8     9    2
    10     8    10   am
    11    10    12    1
    12    12    13   ar
    13    13    14   ar
    14    14    15   ar
    15    15    16   ar
    16    16    17    1
    17    16    18   ar
    18    10     1    1
    19     1     2    1
    20     2     3    1
    21     3     4    1
    22     4    28    1
    23    28    29    1
    24    29    30    1
    25    30    38    1
    26    38    39   ar
    27    39    40   ar
    28    40    41   ar
    29    41    42   ar
    30    42    43    1
    31    42    44   ar
    32    30    31    1
    33    31    32    1
    34    32    33    1
    35    33    34   am
    36    34    35    2
    37    34    45    1
    38    45    46   ar
    39    46    47   ar
    40    47    48   ar
    41    48    51    1
    42    51    52    3
    43    48    49   ar
    44    49    50   ar
    45    33    36    1
    46    36    37    1
    47     4     5    1
    48     5     6    1
    49    23    24   ar
    50    24    25   ar
    51    25    20   ar
    52    18    12   ar
    53     6     1    1
    54    37    30    1
    55    44    38   ar
    56    50    45   ar
    57     7    11    1
@<TRIPOS>MOLECULE
*****
 52 57 0 0 0
SMALL
GASTEIGER

@<TRIPOS>ATOM
      1 C         140.3587  138.9948  157.5120 C.3     1  UNL1        0.0840
      2 C         140.3222  140.4471  157.1387 C.3     1  UNL1        0.0376
      3 C         139.8044  141.4600  158.1163 C.3     1  UNL1        0.0738
      4 N         139.3232  141.0207  159.4674 N.3     1  UNL1       -0.2726
      5 C         139.3597  139.5683  159.8408 C.3     1  UNL1        0.0738
      6 C         139.8775  138.5554  158.8631 C.3     1  UNL1        0.0376
      7 N         142.5519  136.0906  155.9290 N.am    1  UNL1       -0.2844
      8 C         142.0342  137.1036  156.9067 C.2     1  UNL1        0.3079
      9 O         142.6740  137.2383  158.2566 O.2     1  UNL1       -0.2522
     10 N         140.8765  137.9818  156.5344 N.am    1  UNL1       -0.2448
     11 H         142.1319  136.0022  155.0430 H       1  UNL1        0.1513
     12 C         140.2366  137.8470  155.1844 C.ar    1  UNL1        0.0574
     13 C         141.0432  138.0938  153.9441 C.ar    1  UNL1        0.0151
     14 C         140.4033  137.9591  152.5941 C.ar    1  UNL1        0.0036
     15 C         138.9568  137.5775  152.4845 C.ar    1  UNL1        0.0297
     16 C         138.1502  137.3307  153.7248 C.ar    1  UNL1        0.1414
     17 F         136.7037  136.9491  153.6152 F       1  UNL1       -0.2041
     18 C         138.7901  137.4655  155.0748 C.ar    1  UNL1        0.0446
     19 C         143.7095  135.2124  156.3013 C.3     1  UNL1        0.1177
     20 C         143.1278  130.7671  156.6897 C.ar    1  UNL1        0.0684
     21 C         144.2675  131.4389  157.3966 C.ar    1  UNL1        0.0100
     22 C         144.4614  132.9207  157.2671 C.ar    1  UNL1       -0.0019
     23 C         143.5156  133.7306  156.4308 C.ar    1  UNL1       -0.0025
     24 C         142.3759  133.0588  155.7240 C.ar    1  UNL1       -0.0019
     25 C         142.1820  131.5770  155.8534 C.ar    1  UNL1        0.0100
     26 N         142.7399  127.8036  156.9487 N.1     1  UNL1       -0.1908
     27 C         142.9338  129.2853  156.8192 C.1     1  UNL1        0.1004
     28 C         138.8054  142.0336  160.4450 C.3     1  UNL1        0.0724
     29 C         139.5069  143.3500  160.6033 C.3     1  UNL1        0.0215
     30 C         140.7971  143.4255  161.3647 C.3     1  UNL1        0.0236
     31 C         139.9043  142.8464  162.4218 C.3     1  UNL1        0.0257
     32 C         140.4563  142.5348  163.7814 C.3     1  UNL1        0.0940
     33 N         141.9009  142.8023  164.0838 N.am    1  UNL1       -0.2761
     34 C         142.4528  142.4908  165.4433 C.2     1  UNL1        0.2490
     35 O         143.8974  142.7583  165.7456 O.2     1  UNL1       -0.2699
     36 C         142.7936  143.3815  163.0266 C.3     1  UNL1        0.0940
     37 C         142.2417  143.6931  161.6671 C.3     1  UNL1        0.0257
     38 C         141.2417  143.9785  160.0431 C.ar    1  UNL1       -0.0204
     39 C         142.4589  143.4196  159.3676 C.ar    1  UNL1       -0.0041
     40 C         142.9035  143.9725  158.0460 C.ar    1  UNL1        0.0020
     41 C         142.1311  145.0842  157.4000 C.ar    1  UNL1        0.0296
     42 C         140.9139  145.6431  158.0755 C.ar    1  UNL1        0.1398
     43 F         140.1415  146.7548  157.4294 F       1  UNL1       -0.2042
     44 C         140.4693  145.0902  159.3971 C.ar    1  UNL1        0.0254
     45 C         141.5600  141.9116  166.5005 C.ar    1  UNL1        0.0536
     46 C         141.0381  142.7852  167.6024 C.ar    1  UNL1        0.0052
     47 C         140.1453  142.2060  168.6595 C.ar    1  UNL1        0.0104
     48 C         139.7745  140.7532  168.6147 C.ar    1  UNL1        0.0685
     49 C         140.2965  139.8796  167.5127 C.ar    1  UNL1        0.0104
     50 C         141.1892  140.4588  166.4556 C.ar    1  UNL1        0.0052
     51 C         138.8818  140.1740  169.6718 C.1     1  UNL1        0.1004
     52 N         137.9890  139.5949  170.7289 N.1     1  UNL1       -0.1908
@<TRIPOS>BOND
     1    26    27    3
     2    27    20    1
     3    20    21   ar
     4    21    22   ar
     5    22    23   ar
     6    23    19    1
     7    19     7    1
     8     7     8   am
     9     8     9    2
    10     8    10   am
    11    10    12    1
    12    12    13   ar
    13    13    14   ar
    14    14    15   ar
    15    15    16   ar
    16    16    17    1
    17    16    18   ar
    18    10     1    1
    19     1     2    1
    20     2     3    1
    21     3     4    1
    22     4    28    1
    23    28    29    1
    24    29    30    1
    25    30    38    1
    26    38    39   ar
    27    39    40   ar
    28    40    41   ar
    29    41    42   ar
    30    42    43    1
    31    42    44   ar
    32    30    31    1
    33    31    32    1
    34    32    33    1
    35    33    34   am
    36    34    35    2
    37    34    45    1
    38    45    46   ar
    39    46    47   ar
    40    47    48   ar
    41    48    51    1
    42    51    52    3
    43    48    49   ar
    44    49    50   ar
    45    33    36    1
    46    36    37    1
    47     4     5    1
    48     5     6    1
    49    23    24   ar
    50    24    25   ar
    51    25    20   ar
    52    18    12   ar
    53     6     1    1
    54    37    30    1
    55    44    38   ar
    56    50    45   ar
    57     7    11    1
@<TRIPOS>MOLECULE
*****
 52 57 0 0 0
SMALL
GASTEIGER

@<TRIPOS>ATOM
      1 C         141.2868  138.4987  160.6670 C.3     1  UNL1        0.0840
      2 C         142.4079  138.8523  161.5987 C.3     1  UNL1        0.0376
      3 C         142.1743  138.8704  163.0803 C.3     1  UNL1        0.0738
      4 N         140.8197  138.5348  163.6302 N.3     1  UNL1       -0.2726
      5 C         139.6986  138.1811  162.6985 C.3     1  UNL1        0.0738
      6 C         139.9321  138.1630  161.2169 C.3     1  UNL1        0.0376
      7 N         142.6447  137.4189  157.0977 N.am    1  UNL1       -0.2844
      8 C         142.4112  137.4370  158.5793 C.2     1  UNL1        0.3079
      9 O         143.0684  136.4115  159.4547 O.2     1  UNL1       -0.2522
     10 N         141.5204  138.4806  159.1854 N.am    1  UNL1       -0.2448
     11 H         142.2134  138.0920  156.5231 H       1  UNL1        0.1513
     12 C         140.8631  139.5061  158.3100 C.ar    1  UNL1        0.0574
     13 C         139.3996  139.3995  157.9989 C.ar    1  UNL1        0.0151
     14 C         138.7424  140.4251  157.1234 C.ar    1  UNL1        0.0036
     15 C         139.5487  141.5571  156.5591 C.ar    1  UNL1        0.0297
     16 C         141.0122  141.6636  156.8703 C.ar    1  UNL1        0.1414
     17 F         141.8185  142.7956  156.3060 F       1  UNL1       -0.2041
     18 C         141.6694  140.6381  157.7457 C.ar    1  UNL1        0.0446
     19 C         143.5355  136.3754  156.4915 C.3     1  UNL1        0.1177
     20 C         141.8749  132.3216  155.4623 C.ar    1  UNL1        0.0684
     21 C         142.7840  132.4815  156.6446 C.ar    1  UNL1        0.0100
     22 C         143.3375  133.8328  156.9877 C.ar    1  UNL1       -0.0019
     23 C         142.9820  135.0241  156.1484 C.ar    1  UNL1       -0.0025
     24 C         142.0729  134.8641  154.9661 C.ar    1  UNL1       -0.0019
     25 C         141.5194  133.5128  154.6231 C.ar    1  UNL1        0.0100
     26 N         140.7679  129.6190  154.7762 N.1     1  UNL1       -0.1908
     27 C         141.3214  130.9703  155.1193 C.1     1  UNL1        0.1004
     28 C         140.5862  138.5529  165.1118 C.3     1  UNL1        0.0724
     29 C         140.1392  139.8164  165.7853 C.3     1  UNL1        0.0215
     30 C         141.0608  140.9981  165.8504 C.3     1  UNL1        0.0236
     31 C         140.5023  141.1791  164.4701 C.3     1  UNL1        0.0257
     32 C         140.9482  142.3365  163.6264 C.3     1  UNL1        0.0940
     33 N         141.9526  143.3127  164.1630 N.am    1  UNL1       -0.2761
     34 C         142.3985  144.4701  163.3194 C.2     1  UNL1        0.2490
     35 O         143.4030  145.4463  163.8561 O.2     1  UNL1       -0.2699
     36 C         142.5112  143.1317  165.5433 C.3     1  UNL1        0.0940
     37 C         142.0653  141.9743  166.3870 C.3     1  UNL1        0.0257
     38 C         141.2993  140.4066  167.2081 C.ar    1  UNL1       -0.0204
     39 C         142.5974  139.7177  167.5086 C.ar    1  UNL1       -0.0041
     40 C         142.8359  139.1262  168.8662 C.ar    1  UNL1        0.0020
     41 C         141.7763  139.2236  169.9234 C.ar    1  UNL1        0.0296
     42 C         140.4781  139.9126  169.6229 C.ar    1  UNL1        0.1398
     43 F         139.4185  140.0099  170.6801 F       1  UNL1       -0.2042
     44 C         140.2397  140.5040  168.2652 C.ar    1  UNL1        0.0254
     45 C         141.8400  144.6511  161.9391 C.ar    1  UNL1        0.0536
     46 C         142.4679  143.9407  160.7768 C.ar    1  UNL1        0.0052
     47 C         141.9093  144.1218  159.3965 C.ar    1  UNL1        0.0104
     48 C         140.7228  145.0133  159.1785 C.ar    1  UNL1        0.0685
     49 C         140.0949  145.7236  160.3408 C.ar    1  UNL1        0.0104
     50 C         140.6534  145.5426  161.7211 C.ar    1  UNL1        0.0052
     51 C         140.1642  145.1943  157.7982 C.1     1  UNL1        0.1004
     52 N         139.6057  145.3753  156.4179 N.1     1  UNL1       -0.1908
@<TRIPOS>BOND
     1    26    27    3
     2    27    20    1
     3    20    21   ar
     4    21    22   ar
     5    22    23   ar
     6    23    19    1
     7    19     7    1
     8     7     8   am
     9     8     9    2
    10     8    10   am
    11    10    12    1
    12    12    13   ar
    13    13    14   ar
    14    14    15   ar
    15    15    16   ar
    16    16    17    1
    17    16    18   ar
    18    10     1    1
    19     1     2    1
    20     2     3    1
    21     3     4    1
    22     4    28    1
    23    28    29    1
    24    29    30    1
    25    30    38    1
    26    38    39   ar
    27    39    40   ar
    28    40    41   ar
    29    41    42   ar
    30    42    43    1
    31    42    44   ar
    32    30    31    1
    33    31    32    1
    34    32    33    1
    35    33    34   am
    36    34    35    2
    37    34    45    1
    38    45    46   ar
    39    46    47   ar
    40    47    48   ar
    41    48    51    1
    42    51    52    3
    43    48    49   ar
    44    49    50   ar
    45    33    36    1
    46    36    37    1
    47     4     5    1
    48     5     6    1
    49    23    24   ar
    50    24    25   ar
    51    25    20   ar
    52    18    12   ar
    53     6     1    1
    54    37    30    1
    55    44    38   ar
    56    50    45   ar
    57     7    11    1
@<TRIPOS>MOLECULE
*****
 52 57 0 0 0
SMALL
GASTEIGER

@<TRIPOS>ATOM
      1 C         141.9376  137.9910  157.1542 C.3     1  UNL1        0.0840
      2 C         143.0824  138.9126  156.8542 C.3     1  UNL1        0.0376
      3 C         143.3850  140.0573  157.7752 C.3     1  UNL1        0.0738
      4 N         142.5428  140.2804  158.9962 N.3     1  UNL1       -0.2726
      5 C         141.3979  139.3588  159.2962 C.3     1  UNL1        0.0738
      6 C         141.0953  138.2141  158.3753 C.3     1  UNL1        0.0376
      7 N         142.0011  134.3751  155.5200 N.am    1  UNL1       -0.2844
      8 C         142.3037  135.5197  156.4409 C.2     1  UNL1        0.3079
      9 O         143.2748  135.3378  157.5695 O.2     1  UNL1       -0.2522
     10 N         141.6350  136.8464  156.2333 N.am    1  UNL1       -0.2448
     11 H         141.3637  134.4945  154.7793 H       1  UNL1        0.1513
     12 C         140.6639  137.0283  155.1047 C.ar    1  UNL1        0.0574
     13 C         141.1599  137.0854  153.6903 C.ar    1  UNL1        0.0151
     14 C         140.1887  137.2673  152.5616 C.ar    1  UNL1        0.0036
     15 C         138.7215  137.3921  152.8475 C.ar    1  UNL1        0.0297
     16 C         138.2255  137.3349  154.2620 C.ar    1  UNL1        0.1414
     17 F         136.7583  137.4597  154.5479 F       1  UNL1       -0.2041
     18 C         139.1966  137.1530  155.3906 C.ar    1  UNL1        0.0446
     19 C         142.6697  133.0485  155.7276 C.3     1  UNL1        0.1177
     20 C         140.4100  129.2402  154.9270 C.ar    1  UNL1        0.0684
     21 C         139.8421  130.5563  154.4852 C.ar    1  UNL1        0.0100
     22 C         140.5953  131.8257  154.7520 C.ar    1  UNL1       -0.0019
     23 C         141.9165  131.7791  155.4607 C.ar    1  UNL1       -0.0025
     24 C         142.4844  130.4630  155.9026 C.ar    1  UNL1       -0.0019
     25 C         141.7312  129.1935  155.6357 C.ar    1  UNL1        0.0100
     26 N         138.9036  126.7013  154.3933 N.1     1  UNL1       -0.1908
     27 C         139.6568  127.9708  154.6602 C.1     1  UNL1        0.1004
     28 C         142.8453  141.4251  159.9171 C.3     1  UNL1        0.0724
     29 C         142.1052  142.7214  159.7706 C.3     1  UNL1        0.0215
     30 C         140.7962  142.9215  160.4752 C.3     1  UNL1        0.0236
     31 C         141.6248  142.3955  161.6095 C.3     1  UNL1        0.0257
     32 C         141.0146  142.2282  162.9695 C.3     1  UNL1        0.0940
     33 N         139.5757  142.5868  163.1952 N.am    1  UNL1       -0.2761
     34 C         138.9654  142.4194  164.5552 C.2     1  UNL1        0.2490
     35 O         137.5265  142.7780  164.7808 O.2     1  UNL1       -0.2699
     36 C         138.7470  143.1127  162.0609 C.3     1  UNL1        0.0940
     37 C         139.3573  143.2801  160.7009 C.3     1  UNL1        0.0257
     38 C         140.4221  143.3780  159.0962 C.ar    1  UNL1       -0.0204
     39 C         139.6886  142.4511  158.1726 C.ar    1  UNL1       -0.0041
     40 C         139.3146  142.9076  156.7935 C.ar    1  UNL1        0.0020
     41 C         139.6741  144.2908  156.3381 C.ar    1  UNL1        0.0296
     42 C         140.4076  145.2176  157.2617 C.ar    1  UNL1        0.1398
     43 F         140.7671  146.6008  156.8061 F       1  UNL1       -0.2042
     44 C         140.7816  144.7611  158.6407 C.ar    1  UNL1        0.0254
     45 C         139.7941  141.8934  165.6895 C.ar    1  UNL1        0.0536
     46 C         140.4766  142.8470  166.6248 C.ar    1  UNL1        0.0052
     47 C         141.3053  142.3210  167.7591 C.ar    1  UNL1        0.0104
     48 C         141.4514  140.8415  167.9581 C.ar    1  UNL1        0.0685
     49 C         140.7689  139.8879  167.0228 C.ar    1  UNL1        0.0104
     50 C         139.9402  140.4139  165.8885 C.ar    1  UNL1        0.0052
     51 C         142.2801  140.3155  169.0924 C.1     1  UNL1        0.1004
     52 N         143.1088  139.7895  170.2267 N.1     1  UNL1       -0.1908
@<TRIPOS>BOND
     1    26    27    3
     2    27    20    1
     3    20    21   ar
     4    21    22   ar
     5    22    23   ar
     6    23    19    1
     7    19     7    1
     8     7     8   am
     9     8     9    2
    10     8    10   am
    11    10    12    1
    12    12    13   ar
    13    13    14   ar
    14    14    15   ar
    15    15    16   ar
    16    16    17    1
    17    16    18   ar
    18    10     1    1
    19     1     2    1
    20     2     3    1
    21     3     4    1
    22     4    28    1
    23    28    29    1
    24    29    30    1
    25    30    38    1
    26    38    39   ar
    27    39    40   ar
    28    40    41   ar
    29    41    42   ar
    30    42    43    1
    31    42    44   ar
    32    30    31    1
    33    31    32    1
    34    32    33    1
    35    33    34   am
    36    34    35    2
    37    34    45    1
    38    45    46   ar
    39    46    47   ar
    40    47    48   ar
    41    48    51    1
    42    51    52    3
    43    48    49   ar
    44    49    50   ar
    45    33    36    1
    46    36    37    1
    47     4     5    1
    48     5     6    1
    49    23    24   ar
    50    24    25   ar
    51    25    20   ar
    52    18    12   ar
    53     6     1    1
    54    37    30    1
    55    44    38   ar
    56    50    45   ar
    57     7    11    1
@<TRIPOS>MOLECULE
*****
 52 57 0 0 0
SMALL
GASTEIGER

@<TRIPOS>ATOM
      1 C         139.4400  141.1448  160.1312 C.3     1  UNL1        0.0840
      2 C         138.6497  140.3715  159.1176 C.3     1  UNL1        0.0376
      3 C         138.1960  141.0382  157.8529 C.3     1  UNL1        0.0738
      4 N         138.5325  142.4782  157.6018 N.3     1  UNL1       -0.2726
      5 C         139.3229  143.2516  158.6154 C.3     1  UNL1        0.0738
      6 C         139.7766  142.5848  159.8801 C.3     1  UNL1        0.0376
      7 N         139.4690  139.8322  163.8765 N.am    1  UNL1       -0.2844
      8 C         139.0153  140.4990  162.6117 C.2     1  UNL1        0.3079
      9 O         137.6831  141.1866  162.5626 O.2     1  UNL1       -0.2522
     10 N         139.8938  140.4780  161.3960 N.am    1  UNL1       -0.2448
     11 H         140.3434  139.3809  163.9087 H       1  UNL1        0.1513
     12 C         141.2259  139.7904  161.4451 C.ar    1  UNL1        0.0574
     13 C         141.3205  138.3182  161.1736 C.ar    1  UNL1        0.0151
     14 C         142.6528  137.6306  161.2227 C.ar    1  UNL1        0.0036
     15 C         143.8903  138.4151  161.5432 C.ar    1  UNL1        0.0297
     16 C         143.7958  139.8873  161.8147 C.ar    1  UNL1        0.1414
     17 F         145.0334  140.6719  162.1352 F       1  UNL1       -0.2041
     18 C         142.4636  140.5750  161.7656 C.ar    1  UNL1        0.0446
     19 C         138.5906  139.8531  165.0921 C.3     1  UNL1        0.1177
     20 C         140.2230  141.3143  169.0228 C.ar    1  UNL1        0.0684
     21 C         139.3770  140.0767  168.9756 C.ar    1  UNL1        0.0100
     22 C         138.8328  139.5896  167.6654 C.ar    1  UNL1       -0.0019
     23 C         139.1347  140.3402  166.4023 C.ar    1  UNL1       -0.0025
     24 C         139.9808  141.5779  166.4495 C.ar    1  UNL1       -0.0019
     25 C         140.5250  142.0649  167.7597 C.ar    1  UNL1        0.0100
     26 N         141.3113  142.2885  171.6432 N.1     1  UNL1       -0.1908
     27 C         140.7672  141.8014  170.3330 C.1     1  UNL1        0.1004
     28 C         138.0788  143.1449  156.3370 C.3     1  UNL1        0.0724
     29 C         139.0415  143.3357  155.2027 C.3     1  UNL1        0.0215
     30 C         140.5176  143.3620  155.4681 C.3     1  UNL1        0.0236
     31 C         140.2631  141.8864  155.5572 C.3     1  UNL1        0.0257
     32 C         141.3951  140.9464  155.8487 C.3     1  UNL1        0.0940
     33 N         142.7815  141.4819  156.0512 N.am    1  UNL1       -0.2761
     34 C         143.9135  140.5419  156.3427 C.2     1  UNL1        0.2490
     35 O         145.2999  141.0775  156.5452 O.2     1  UNL1       -0.2699
     36 C         143.0360  142.9575  155.9621 C.3     1  UNL1        0.0940
     37 C         141.9040  143.8975  155.6706 C.3     1  UNL1        0.0257
     38 C         140.2593  144.8284  155.2869 C.ar    1  UNL1       -0.0204
     39 C         140.5345  145.4806  153.9643 C.ar    1  UNL1       -0.0041
     40 C         140.2762  146.9470  153.7831 C.ar    1  UNL1        0.0020
     41 C         139.7429  147.7613  154.9243 C.ar    1  UNL1        0.0296
     42 C         139.4678  147.1092  156.2468 C.ar    1  UNL1        0.1398
     43 F         138.9345  147.9235  157.3880 F       1  UNL1       -0.2042
     44 C         139.7260  145.6427  156.4281 C.ar    1  UNL1        0.0254
     45 C         143.6590  139.0663  156.4318 C.ar    1  UNL1        0.0536
     46 C         144.1738  138.1505  155.3612 C.ar    1  UNL1        0.0052
     47 C         143.9194  136.6749  155.4502 C.ar    1  UNL1        0.0104
     48 C         143.1500  136.1152  156.6100 C.ar    1  UNL1        0.0685
     49 C         142.6352  137.0310  157.6805 C.ar    1  UNL1        0.0104
     50 C         142.8897  138.5066  157.5915 C.ar    1  UNL1        0.0052
     51 C         142.8956  134.6396  156.6990 C.1     1  UNL1        0.1004
     52 N         142.6411  133.1641  156.7881 N.1     1  UNL1       -0.1908
@<TRIPOS>BOND
     1    26    27    3
     2    27    20    1
     3    20    21   ar
     4    21    22   ar
     5    22    23   ar
     6    23    19    1
     7    19     7    1
     8     7     8   am
     9     8     9    2
    10     8    10   am
    11    10    12    1
    12    12    13   ar
    13    13    14   ar
    14    14    15   ar
    15    15    16   ar
    16    16    17    1
    17    16    18   ar
    18    10     1    1
    19     1     2    1
    20     2     3    1
    21     3     4    1
    22     4    28    1
    23    28    29    1
    24    29    30    1
    25    30    38    1
    26    38    39   ar
    27    39    40   ar
    28    40    41   ar
    29    41    42   ar
    30    42    43    1
    31    42    44   ar
    32    30    31    1
    33    31    32    1
    34    32    33    1
    35    33    34   am
    36    34    35    2
    37    34    45    1
    38    45    46   ar
    39    46    47   ar
    40    47    48   ar
    41    48    51    1
    42    51    52    3
    43    48    49   ar
    44    49    50   ar
    45    33    36    1
    46    36    37    1
    47     4     5    1
    48     5     6    1
    49    23    24   ar
    50    24    25   ar
    51    25    20   ar
    52    18    12   ar
    53     6     1    1
    54    37    30    1
    55    44    38   ar
    56    50    45   ar
    57     7    11    1
@<TRIPOS>MOLECULE
*****
 52 57 0 0 0
SMALL
GASTEIGER

@<TRIPOS>ATOM
      1 C         140.9245  143.2985  156.8139 C.3     1  UNL1        0.0840
      2 C         141.8835  142.1727  156.5635 C.3     1  UNL1        0.0376
      3 C         142.6136  141.5401  157.7110 C.3     1  UNL1        0.0738
      4 N         142.3847  142.0334  159.1089 N.3     1  UNL1       -0.2726
      5 C         141.4256  143.1593  159.3594 C.3     1  UNL1        0.0738
      6 C         140.6955  143.7919  158.2118 C.3     1  UNL1        0.0376
      7 N         140.0136  145.7996  153.8702 N.am    1  UNL1       -0.2844
      8 C         140.7437  145.1671  155.0178 C.2     1  UNL1        0.3079
      9 O         142.0231  145.7705  155.5168 O.2     1  UNL1       -0.2522
     10 N         140.1944  143.9311  155.6663 N.am    1  UNL1       -0.2448
     11 H         139.1739  145.4036  153.5428 H       1  UNL1        0.1513
     12 C         138.9150  143.3277  155.1673 C.ar    1  UNL1        0.0574
     13 C         137.6104  143.7006  155.8068 C.ar    1  UNL1        0.0151
     14 C         136.3310  143.0972  155.3077 C.ar    1  UNL1        0.0036
     15 C         136.3562  142.1208  154.1693 C.ar    1  UNL1        0.0297
     16 C         137.6608  141.7478  153.5299 C.ar    1  UNL1        0.1414
     17 F         137.6861  140.7714  152.3915 F       1  UNL1       -0.2041
     18 C         138.9402  142.3512  154.0289 C.ar    1  UNL1        0.0446
     19 C         140.5629  147.0356  153.2217 C.3     1  UNL1        0.1177
     20 C         139.2972  151.0977  154.6871 C.ar    1  UNL1        0.0684
     21 C         140.2006  150.9781  153.4956 C.ar    1  UNL1        0.0100
     22 C         140.6225  149.6241  153.0072 C.ar    1  UNL1       -0.0019
     23 C         140.1410  148.3896  153.7102 C.ar    1  UNL1       -0.0025
     24 C         139.2377  148.5092  154.9016 C.ar    1  UNL1       -0.0019
     25 C         138.8158  149.8632  155.3901 C.ar    1  UNL1        0.0100
     26 N         138.4535  153.8058  155.6640 N.1     1  UNL1       -0.1908
     27 C         138.8754  152.4517  155.1755 C.1     1  UNL1        0.1004
     28 C         143.1148  141.4009  160.2565 C.3     1  UNL1        0.0724
     29 C         142.9330  139.9407  160.5476 C.3     1  UNL1        0.0215
     30 C         141.7022  139.4657  161.2613 C.3     1  UNL1        0.0236
     31 C         142.3639  140.2344  162.3664 C.3     1  UNL1        0.0257
     32 C         141.7133  140.3184  163.7154 C.3     1  UNL1        0.0940
     33 N         140.4012  139.6338  163.9593 N.am    1  UNL1       -0.2761
     34 C         139.7507  139.7178  165.3083 C.2     1  UNL1        0.2490
     35 O         138.4385  139.0332  165.5521 O.2     1  UNL1       -0.2699
     36 C         139.7395  138.8651  162.8542 C.3     1  UNL1        0.0940
     37 C         140.3900  138.7811  161.5051 C.3     1  UNL1        0.0257
     38 C         141.4680  138.8620  159.9083 C.ar    1  UNL1       -0.0204
     39 C         140.1758  139.1122  159.1888 C.ar    1  UNL1       -0.0041
     40 C         139.9416  138.5086  157.8358 C.ar    1  UNL1        0.0020
     41 C         140.9996  137.6547  157.2022 C.ar    1  UNL1        0.0296
     42 C         142.2918  137.4045  157.9216 C.ar    1  UNL1        0.1398
     43 F         143.3498  136.5506  157.2879 F       1  UNL1       -0.2042
     44 C         142.5260  138.0082  159.2747 C.ar    1  UNL1        0.0254
     45 C         140.4123  140.4865  166.4134 C.ar    1  UNL1        0.0536
     46 C         140.0708  141.9307  166.6314 C.ar    1  UNL1        0.0052
     47 C         140.7325  142.6993  167.7365 C.ar    1  UNL1        0.0104
     48 C         141.7358  142.0237  168.6237 C.ar    1  UNL1        0.0685
     49 C         142.0773  140.5795  168.4058 C.ar    1  UNL1        0.0104
     50 C         141.4156  139.8108  167.3007 C.ar    1  UNL1        0.0052
     51 C         142.3974  142.7923  169.7288 C.1     1  UNL1        0.1004
     52 N         143.0591  143.5610  170.8340 N.1     1  UNL1       -0.1908
@<TRIPOS>BOND
     1    26    27    3
     2    27    20    1
     3    20    21   ar
     4    21    22   ar
     5    22    23   ar
     6    23    19    1
     7    19     7    1
     8     7     8   am
     9     8     9    2
    10     8    10   am
    11    10    12    1
    12    12    13   ar
    13    13    14   ar
    14    14    15   ar
    15    15    16   ar
    16    16    17    1
    17    16    18   ar
    18    10     1    1
    19     1     2    1
    20     2     3    1
    21     3     4    1
    22     4    28    1
    23    28    29    1
    24    29    30    1
    25    30    38    1
    26    38    39   ar
    27    39    40   ar
    28    40    41   ar
    29    41    42   ar
    30    42    43    1
    31    42    44   ar
    32    30    31    1
    33    31    32    1
    34    32    33    1
    35    33    34   am
    36    34    35    2
    37    34    45    1
    38    45    46   ar
    39    46    47   ar
    40    47    48   ar
    41    48    51    1
    42    51    52    3
    43    48    49   ar
    44    49    50   ar
    45    33    36    1
    46    36    37    1
    47     4     5    1
    48     5     6    1
    49    23    24   ar
    50    24    25   ar
    51    25    20   ar
    52    18    12   ar
    53     6     1    1
    54    37    30    1
    55    44    38   ar
    56    50    45   ar
    57     7    11    1
@<TRIPOS>MOLECULE
*****
 52 57 0 0 0
SMALL
GASTEIGER

@<TRIPOS>ATOM
      1 C         139.2098  140.8802  159.9564 C.3     1  UNL1        0.0840
      2 C         139.6867  139.5917  159.3545 C.3     1  UNL1        0.0376
      3 C         139.2777  139.2183  157.9605 C.3     1  UNL1        0.0738
      4 N         138.3917  140.1334  157.1684 N.3     1  UNL1       -0.2726
      5 C         137.9148  141.4220  157.7702 C.3     1  UNL1        0.0738
      6 C         138.3238  141.7954  159.1642 C.3     1  UNL1        0.0376
      7 N         139.5073  140.8447  163.9137 N.am    1  UNL1       -0.2844
      8 C         139.0983  140.4713  162.5197 C.2     1  UNL1        0.3079
      9 O         138.1686  139.3158  162.2950 O.2     1  UNL1       -0.2522
     10 N         139.6189  141.2535  161.3504 N.am    1  UNL1       -0.2448
     11 H         140.1175  141.6031  164.0612 H       1  UNL1        0.1513
     12 C         140.5485  142.4090  161.5752 C.ar    1  UNL1        0.0574
     13 C         142.0322  142.1884  161.5784 C.ar    1  UNL1        0.0151
     14 C         142.9618  143.3439  161.8031 C.ar    1  UNL1        0.0036
     15 C         142.4078  144.7201  162.0247 C.ar    1  UNL1        0.0297
     16 C         140.9241  144.9408  162.0215 C.ar    1  UNL1        0.1414
     17 F         140.3701  146.3170  162.2430 F       1  UNL1       -0.2041
     18 C         139.9945  143.7853  161.7967 C.ar    1  UNL1        0.0446
     19 C         138.9867  140.0626  165.0830 C.3     1  UNL1        0.1177
     20 C         140.0507  141.3060  169.2749 C.ar    1  UNL1        0.0684
     21 C         139.2286  140.0728  169.0442 C.ar    1  UNL1        0.0100
     22 C         138.8739  139.6583  167.6469 C.ar    1  UNL1       -0.0019
     23 C         139.3414  140.4771  166.4803 C.ar    1  UNL1       -0.0025
     24 C         140.1635  141.7103  166.7109 C.ar    1  UNL1       -0.0019
     25 C         140.5181  142.1248  168.1082 C.ar    1  UNL1        0.0100
     26 N         140.7600  142.1350  172.0694 N.1     1  UNL1       -0.1908
     27 C         140.4054  141.7205  170.6722 C.1     1  UNL1        0.1004
     28 C         137.9827  139.7601  155.7744 C.3     1  UNL1        0.0724
     29 C         138.8635  140.1160  154.6136 C.3     1  UNL1        0.0215
     30 C         140.3553  140.0564  154.7581 C.3     1  UNL1        0.0236
     31 C         140.0249  138.5971  154.8640 C.3     1  UNL1        0.0257
     32 C         141.1211  137.5922  155.0602 C.3     1  UNL1        0.0940
     33 N         142.5477  138.0467  155.1505 N.am    1  UNL1       -0.2761
     34 C         143.6440  137.0418  155.3468 C.2     1  UNL1        0.2490
     35 O         145.0706  137.4963  155.4371 O.2     1  UNL1       -0.2699
     36 C         142.8782  139.5060  155.0447 C.3     1  UNL1        0.0940
     37 C         141.7819  140.5109  154.8484 C.3     1  UNL1        0.0257
     38 C         140.1675  141.5364  154.6020 C.ar    1  UNL1       -0.0204
     39 C         139.4783  142.0809  153.3860 C.ar    1  UNL1       -0.0041
     40 C         139.2906  143.5609  153.2300 C.ar    1  UNL1        0.0020
     41 C         139.7920  144.4964  154.2898 C.ar    1  UNL1        0.0296
     42 C         140.4812  143.9519  155.5058 C.ar    1  UNL1        0.1398
     43 F         140.9827  144.8875  156.5656 F       1  UNL1       -0.2042
     44 C         140.6690  142.4719  155.6619 C.ar    1  UNL1        0.0254
     45 C         143.3136  135.5825  155.4526 C.ar    1  UNL1        0.0536
     46 C         142.8097  134.8386  154.2516 C.ar    1  UNL1        0.0052
     47 C         142.4793  133.3792  154.3575 C.ar    1  UNL1        0.0104
     48 C         142.6528  132.6639  155.6645 C.ar    1  UNL1        0.0685
     49 C         143.1567  133.4078  156.8655 C.ar    1  UNL1        0.0104
     50 C         143.4871  134.8671  156.7596 C.ar    1  UNL1        0.0052
     51 C         142.3224  131.2046  155.7703 C.1     1  UNL1        0.1004
     52 N         141.9919  129.7453  155.8762 N.1     1  UNL1       -0.1908
@<TRIPOS>BOND
     1    26    27    3
     2    27    20    1
     3    20    21   ar
     4    21    22   ar
     5    22    23   ar
     6    23    19    1
     7    19     7    1
     8     7     8   am
     9     8     9    2
    10     8    10   am
    11    10    12    1
    12    12    13   ar
    13    13    14   ar
    14    14    15   ar
    15    15    16   ar
    16    16    17    1
    17    16    18   ar
    18    10     1    1
    19     1     2    1
    20     2     3    1
    21     3     4    1
    22     4    28    1
    23    28    29    1
    24    29    30    1
    25    30    38    1
    26    38    39   ar
    27    39    40   ar
    28    40    41   ar
    29    41    42   ar
    30    42    43    1
    31    42    44   ar
    32    30    31    1
    33    31    32    1
    34    32    33    1
    35    33    34   am
    36    34    35    2
    37    34    45    1
    38    45    46   ar
    39    46    47   ar
    40    47    48   ar
    41    48    51    1
    42    51    52    3
    43    48    49   ar
    44    49    50   ar
    45    33    36    1
    46    36    37    1
    47     4     5    1
    48     5     6    1
    49    23    24   ar
    50    24    25   ar
    51    25    20   ar
    52    18    12   ar
    53     6     1    1
    54    37    30    1
    55    44    38   ar
    56    50    45   ar
    57     7    11    1
