@<TRIPOS>MOLECULE
*****
 27 28 0 0 0
SMALL
GASTEIGER

@<TRIPOS>ATOM
      1 C         142.9752  143.0206  163.5206 C.ar    1  UNL1        0.0628
      2 C         142.2253  142.0631  164.3984 C.ar    1  UNL1        0.0339
      3 C         140.7371  142.1849  164.5416 C.ar    1  UNL1        0.0848
      4 N         139.9988  143.2643  163.8069 N.ar    1  UNL1       -0.2178
      5 C         140.7487  144.2219  162.9291 C.ar    1  UNL1        0.2327
      6 N         142.2369  144.1000  162.7859 N.ar    1  UNL1       -0.2222
      7 C         139.9872  141.2273  165.4196 C.ar    1  UNL1        0.0177
      8 C         138.8635  140.4119  164.8517 C.ar    1  UNL1        0.0015
      9 C         138.1136  139.4543  165.7296 C.ar    1  UNL1       -0.0000
     10 C         138.4874  139.3121  167.1753 C.ar    1  UNL1        0.0039
     11 C         139.6111  140.1275  167.7432 C.ar    1  UNL1        0.0715
     12 C         140.3610  141.0852  166.8652 C.ar    1  UNL1        0.0053
     13 C         139.9849  139.9854  169.1888 C.3     1  UNL1        0.4186
     14 F         140.3586  139.8432  170.6345 F       1  UNL1       -0.1659
     15 F         141.4236  139.8155  168.8002 F       1  UNL1       -0.1659
     16 F         138.5461  140.1553  169.5775 F       1  UNL1       -0.1659
     17 C         140.0104  145.3013  162.1943 C.1     1  UNL1        0.1399
     18 N         139.2722  146.3807  161.4596 N.1     1  UNL1       -0.1876
     19 C         144.4633  142.8988  163.3774 C.3     1  UNL1        0.0474
     20 C         145.2061  141.8417  164.1395 C.3     1  UNL1        0.0234
     21 C         145.1330  140.4093  163.7001 C.3     1  UNL1        0.0689
     22 N         144.7727  139.3394  164.6878 N.3     1  UNL1       -0.2995
     23 H         145.4183  138.5652  164.5319 H       1  UNL1        0.1232
     24 C         143.3784  138.7945  166.1908 C.3     1  UNL1        0.0158
     25 C         143.3906  138.7565  164.6913 C.3     1  UNL1        0.0420
     26 C         143.4028  138.7185  163.1919 C.3     1  UNL1        0.0158
     27 C         142.0085  138.1737  164.6948 C.3     1  UNL1        0.0158
@<TRIPOS>BOND
     1    24    25    1
     2    25    26    1
     3    25    27    1
     4    25    22    1
     5    22    21    1
     6    21    20    1
     7    20    19    1
     8    19     1    1
     9     1     2   ar
    10     2     3   ar
    11     3     7    1
    12     7     8   ar
    13     8     9   ar
    14     9    10   ar
    15    10    11   ar
    16    11    13    1
    17    13    14    1
    18    13    15    1
    19    13    16    1
    20    11    12   ar
    21     3     4   ar
    22     4     5   ar
    23     5    17    1
    24    17    18    3
    25     5     6   ar
    26     6     1   ar
    27    12     7   ar
    28    22    23    1
@<TRIPOS>MOLECULE
*****
 27 28 0 0 0
SMALL
GASTEIGER

@<TRIPOS>ATOM
      1 C         143.2679  143.1251  163.4818 C.ar    1  UNL1        0.0628
      2 C         142.6798  142.3799  164.6431 C.ar    1  UNL1        0.0339
      3 C         141.2553  142.6222  165.0459 C.ar    1  UNL1        0.0848
      4 N         140.4190  143.6096  164.2872 N.ar    1  UNL1       -0.2178
      5 C         141.0071  144.3548  163.1259 C.ar    1  UNL1        0.2327
      6 N         142.4316  144.1125  162.7232 N.ar    1  UNL1       -0.2222
      7 C         140.6671  141.8770  166.2073 C.ar    1  UNL1        0.0177
      8 C         140.9932  142.2963  167.6101 C.ar    1  UNL1        0.0015
      9 C         140.4051  141.5511  168.7715 C.ar    1  UNL1       -0.0000
     10 C         139.4909  140.3866  168.5301 C.ar    1  UNL1        0.0039
     11 C         139.1649  139.9673  167.1272 C.ar    1  UNL1        0.0715
     12 C         139.7530  140.7125  165.9658 C.ar    1  UNL1        0.0053
     13 C         138.2508  138.8028  166.8858 C.3     1  UNL1        0.4186
     14 F         137.3366  137.6383  166.6444 F       1  UNL1       -0.1659
     15 F         138.8734  138.5936  165.5373 F       1  UNL1       -0.1659
     16 F         137.6281  139.0120  168.2343 F       1  UNL1       -0.1659
     17 C         140.1708  145.3422  162.3672 C.1     1  UNL1        0.1399
     18 N         139.3346  146.3297  161.6085 N.1     1  UNL1       -0.1876
     19 C         144.6924  142.8829  163.0791 C.3     1  UNL1        0.0474
     20 C         145.4793  141.7842  163.7299 C.3     1  UNL1        0.0234
     21 C         145.0965  140.3517  163.5031 C.3     1  UNL1        0.0689
     22 N         144.6968  139.4894  164.6636 N.3     1  UNL1       -0.2995
     23 H         145.4058  138.7609  164.7471 H       1  UNL1        0.1232
     24 C         143.4247  138.6887  163.1667 C.3     1  UNL1        0.0158
     25 C         143.3650  138.7992  164.6615 C.3     1  UNL1        0.0420
     26 C         143.3053  138.9098  166.1562 C.3     1  UNL1        0.0158
     27 C         142.0332  138.1091  164.6593 C.3     1  UNL1        0.0158
@<TRIPOS>BOND
     1    24    25    1
     2    25    26    1
     3    25    27    1
     4    25    22    1
     5    22    21    1
     6    21    20    1
     7    20    19    1
     8    19     1    1
     9     1     2   ar
    10     2     3   ar
    11     3     7    1
    12     7     8   ar
    13     8     9   ar
    14     9    10   ar
    15    10    11   ar
    16    11    13    1
    17    13    14    1
    18    13    15    1
    19    13    16    1
    20    11    12   ar
    21     3     4   ar
    22     4     5   ar
    23     5    17    1
    24    17    18    3
    25     5     6   ar
    26     6     1   ar
    27    12     7   ar
    28    22    23    1
@<TRIPOS>MOLECULE
*****
 27 28 0 0 0
SMALL
GASTEIGER

@<TRIPOS>ATOM
      1 C         140.4630  142.5542  163.5329 C.ar    1  UNL1        0.0628
      2 C         140.7125  142.8261  164.9868 C.ar    1  UNL1        0.0339
      3 C         141.6973  141.9890  165.7480 C.ar    1  UNL1        0.0848
      4 N         142.4325  140.8801  165.0555 N.ar    1  UNL1       -0.2178
      5 C         142.1830  140.6083  163.6016 C.ar    1  UNL1        0.2327
      6 N         141.1982  141.4453  162.8403 N.ar    1  UNL1       -0.2222
      7 C         141.9468  142.2609  167.2020 C.ar    1  UNL1        0.0177
      8 C         143.3366  142.1571  167.7566 C.ar    1  UNL1        0.0015
      9 C         143.5862  142.4290  169.2105 C.ar    1  UNL1       -0.0000
     10 C         142.4459  142.8046  170.1098 C.ar    1  UNL1        0.0039
     11 C         141.0561  142.9083  169.5552 C.ar    1  UNL1        0.0715
     12 C         140.8065  142.6365  168.1012 C.ar    1  UNL1        0.0053
     13 C         139.9158  143.2839  170.4544 C.3     1  UNL1        0.4186
     14 F         138.7755  143.6595  171.3536 F       1  UNL1       -0.1659
     15 F         140.2388  144.7354  170.2577 F       1  UNL1       -0.1659
     16 F         139.5928  141.8324  170.6511 F       1  UNL1       -0.1659
     17 C         142.9183  139.4993  162.9089 C.1     1  UNL1        0.1399
     18 N         143.6535  138.3905  162.2163 N.1     1  UNL1       -0.1876
     19 C         139.4782  143.3913  162.7716 C.3     1  UNL1        0.0474
     20 C         138.0061  143.1924  162.9795 C.3     1  UNL1        0.0234
     21 C         137.4201  141.8128  162.9214 C.3     1  UNL1        0.0689
     22 N         137.4121  140.9491  164.1479 N.3     1  UNL1       -0.2995
     23 H         137.6757  141.5473  164.9309 H       1  UNL1        0.1232
     24 C         138.1045  139.5184  162.7431 C.3     1  UNL1        0.0158
     25 C         138.2899  139.7348  164.2158 C.3     1  UNL1        0.0420
     26 C         138.4754  139.9512  165.6885 C.3     1  UNL1        0.0158
     27 C         139.1678  138.5204  164.2837 C.3     1  UNL1        0.0158
@<TRIPOS>BOND
     1    24    25    1
     2    25    26    1
     3    25    27    1
     4    25    22    1
     5    22    21    1
     6    21    20    1
     7    20    19    1
     8    19     1    1
     9     1     2   ar
    10     2     3   ar
    11     3     7    1
    12     7     8   ar
    13     8     9   ar
    14     9    10   ar
    15    10    11   ar
    16    11    13    1
    17    13    14    1
    18    13    15    1
    19    13    16    1
    20    11    12   ar
    21     3     4   ar
    22     4     5   ar
    23     5    17    1
    24    17    18    3
    25     5     6   ar
    26     6     1   ar
    27    12     7   ar
    28    22    23    1
@<TRIPOS>MOLECULE
*****
 27 28 0 0 0
SMALL
GASTEIGER

@<TRIPOS>ATOM
      1 C         140.4188  142.6937  163.4198 C.ar    1  UNL1        0.0628
      2 C         140.7212  142.9673  164.8632 C.ar    1  UNL1        0.0339
      3 C         141.5134  141.9770  165.6643 C.ar    1  UNL1        0.0848
      4 N         142.0031  140.7131  165.0219 N.ar    1  UNL1       -0.2178
      5 C         141.7006  140.4395  163.5785 C.ar    1  UNL1        0.2327
      6 N         140.9085  141.4299  162.7774 N.ar    1  UNL1       -0.2222
      7 C         141.8158  142.2506  167.1079 C.ar    1  UNL1        0.0177
      8 C         143.2241  142.1419  167.6127 C.ar    1  UNL1        0.0015
      9 C         143.5266  142.4155  169.0562 C.ar    1  UNL1       -0.0000
     10 C         142.4207  142.7978  169.9949 C.ar    1  UNL1        0.0039
     11 C         141.0124  142.9065  169.4900 C.ar    1  UNL1        0.0715
     12 C         140.7100  142.6329  168.0464 C.ar    1  UNL1        0.0053
     13 C         139.9066  143.2888  170.4286 C.3     1  UNL1        0.4186
     14 F         138.8008  143.6711  171.3671 F       1  UNL1       -0.1659
     15 F         140.2501  144.7371  170.2433 F       1  UNL1       -0.1659
     16 F         139.5631  141.8405  170.6138 F       1  UNL1       -0.1659
     17 C         142.1904  139.1756  162.9360 C.1     1  UNL1        0.1399
     18 N         142.6801  137.9117  162.2936 N.1     1  UNL1       -0.1876
     19 C         139.6266  143.6841  162.6187 C.3     1  UNL1        0.0474
     20 C         140.3172  144.8449  161.9664 C.3     1  UNL1        0.0234
     21 C         141.6542  144.6521  161.3142 C.3     1  UNL1        0.0689
     22 N         142.9023  145.1005  162.0152 N.3     1  UNL1       -0.2995
     23 H         143.5298  145.4618  161.2969 H       1  UNL1        0.1232
     24 C         143.7885  143.2086  161.6475 C.3     1  UNL1        0.0158
     25 C         143.6956  144.1241  162.8320 C.3     1  UNL1        0.0420
     26 C         143.6028  145.0396  164.0166 C.3     1  UNL1        0.0158
     27 C         144.4890  143.1477  163.6489 C.3     1  UNL1        0.0158
@<TRIPOS>BOND
     1    24    25    1
     2    25    26    1
     3    25    27    1
     4    25    22    1
     5    22    21    1
     6    21    20    1
     7    20    19    1
     8    19     1    1
     9     1     2   ar
    10     2     3   ar
    11     3     7    1
    12     7     8   ar
    13     8     9   ar
    14     9    10   ar
    15    10    11   ar
    16    11    13    1
    17    13    14    1
    18    13    15    1
    19    13    16    1
    20    11    12   ar
    21     3     4   ar
    22     4     5   ar
    23     5    17    1
    24    17    18    3
    25     5     6   ar
    26     6     1   ar
    27    12     7   ar
    28    22    23    1
@<TRIPOS>MOLECULE
*****
 27 28 0 0 0
SMALL
GASTEIGER

@<TRIPOS>ATOM
      1 C         141.2765  140.9939  163.1574 C.ar    1  UNL1        0.0628
      2 C         141.6423  141.0946  164.6086 C.ar    1  UNL1        0.0339
      3 C         141.3004  142.3322  165.3842 C.ar    1  UNL1        0.0848
      4 N         140.5927  143.4691  164.7085 N.ar    1  UNL1       -0.2178
      5 C         140.2269  143.3684  163.2573 C.ar    1  UNL1        0.2327
      6 N         140.5688  142.1308  162.4818 N.ar    1  UNL1       -0.2222
      7 C         141.6662  142.4329  166.8354 C.ar    1  UNL1        0.0177
      8 C         143.0819  142.1949  167.2702 C.ar    1  UNL1        0.0015
      9 C         143.4478  142.2955  168.7214 C.ar    1  UNL1       -0.0000
     10 C         142.3979  142.6342  169.7379 C.ar    1  UNL1        0.0039
     11 C         140.9822  142.8722  169.3031 C.ar    1  UNL1        0.0715
     12 C         140.6163  142.7716  167.8518 C.ar    1  UNL1        0.0053
     13 C         139.9323  143.2109  170.3194 C.3     1  UNL1        0.4186
     14 F         138.8824  143.5496  171.3358 F       1  UNL1       -0.1659
     15 F         139.5055  141.7734  170.3576 F       1  UNL1       -0.1659
     16 F         140.3591  144.6484  170.2813 F       1  UNL1       -0.1659
     17 C         139.5191  144.5053  162.5816 C.1     1  UNL1        0.1399
     18 N         138.8113  145.6422  161.9059 N.1     1  UNL1       -0.1876
     19 C         141.6185  139.7564  162.3819 C.3     1  UNL1        0.0474
     20 C         140.5255  138.8616  161.8771 C.3     1  UNL1        0.0234
     21 C         139.6180  138.1655  162.8475 C.3     1  UNL1        0.0689
     22 N         138.5070  138.9236  163.5118 N.3     1  UNL1       -0.2995
     23 H         138.5130  139.8630  163.1145 H       1  UNL1        0.1232
     24 C         138.9646  137.6679  165.1592 C.3     1  UNL1        0.0158
     25 C         138.4957  139.0842  165.0032 C.3     1  UNL1        0.0420
     26 C         138.0269  140.5005  164.8471 C.3     1  UNL1        0.0158
     27 C         138.4844  139.2448  166.4945 C.3     1  UNL1        0.0158
@<TRIPOS>BOND
     1    24    25    1
     2    25    26    1
     3    25    27    1
     4    25    22    1
     5    22    21    1
     6    21    20    1
     7    20    19    1
     8    19     1    1
     9     1     2   ar
    10     2     3   ar
    11     3     7    1
    12     7     8   ar
    13     8     9   ar
    14     9    10   ar
    15    10    11   ar
    16    11    13    1
    17    13    14    1
    18    13    15    1
    19    13    16    1
    20    11    12   ar
    21     3     4   ar
    22     4     5   ar
    23     5    17    1
    24    17    18    3
    25     5     6   ar
    26     6     1   ar
    27    12     7   ar
    28    22    23    1
@<TRIPOS>MOLECULE
*****
 27 28 0 0 0
SMALL
GASTEIGER

@<TRIPOS>ATOM
      1 C         139.0010  139.5264  166.7977 C.ar    1  UNL1        0.0628
      2 C         139.3506  140.6336  165.8481 C.ar    1  UNL1        0.0339
      3 C         140.0084  141.8808  166.3598 C.ar    1  UNL1        0.0848
      4 N         140.3166  142.0208  167.8211 N.ar    1  UNL1       -0.2178
      5 C         139.9670  140.9136  168.7707 C.ar    1  UNL1        0.2327
      6 N         139.3092  139.6664  168.2590 N.ar    1  UNL1       -0.2222
      7 C         140.3579  142.9881  165.4101 C.ar    1  UNL1        0.0177
      8 C         139.3399  144.0372  165.0740 C.ar    1  UNL1        0.0015
      9 C         139.6894  145.1445  164.1244 C.ar    1  UNL1       -0.0000
     10 C         141.0570  145.2026  163.5108 C.ar    1  UNL1        0.0039
     11 C         142.0750  144.1535  163.8469 C.ar    1  UNL1        0.0715
     12 C         141.7254  143.0462  164.7966 C.ar    1  UNL1        0.0053
     13 C         143.4425  144.2116  163.2334 C.3     1  UNL1        0.4186
     14 F         144.8100  144.2697  162.6199 F       1  UNL1       -0.1659
     15 F         143.7100  145.5010  163.9517 F       1  UNL1       -0.1659
     16 F         143.1750  142.9223  162.5151 F       1  UNL1       -0.1659
     17 C         140.2753  141.0535  170.2320 C.1     1  UNL1        0.1399
     18 N         140.5834  141.1934  171.6933 N.1     1  UNL1       -0.1876
     19 C         138.3432  138.2792  166.2861 C.3     1  UNL1        0.0474
     20 C         138.8106  137.6567  165.0039 C.3     1  UNL1        0.0234
     21 C         140.2684  137.3705  164.7969 C.3     1  UNL1        0.0689
     22 N         141.0351  138.1090  163.7400 N.3     1  UNL1       -0.2995
     23 H         141.4047  137.4066  163.0994 H       1  UNL1        0.1232
     24 C         142.4129  138.1572  165.3523 C.3     1  UNL1        0.0158
     25 C         142.1853  138.9909  164.1262 C.3     1  UNL1        0.0420
     26 C         141.9578  139.8246  162.9002 C.3     1  UNL1        0.0158
     27 C         143.3356  139.8728  164.5124 C.3     1  UNL1        0.0158
@<TRIPOS>BOND
     1    24    25    1
     2    25    26    1
     3    25    27    1
     4    25    22    1
     5    22    21    1
     6    21    20    1
     7    20    19    1
     8    19     1    1
     9     1     2   ar
    10     2     3   ar
    11     3     7    1
    12     7     8   ar
    13     8     9   ar
    14     9    10   ar
    15    10    11   ar
    16    11    13    1
    17    13    14    1
    18    13    15    1
    19    13    16    1
    20    11    12   ar
    21     3     4   ar
    22     4     5   ar
    23     5    17    1
    24    17    18    3
    25     5     6   ar
    26     6     1   ar
    27    12     7   ar
    28    22    23    1
@<TRIPOS>MOLECULE
*****
 27 28 0 0 0
SMALL
GASTEIGER

@<TRIPOS>ATOM
      1 C         141.3223  142.1711  163.4972 C.ar    1  UNL1        0.0628
      2 C         141.3167  142.1917  164.9970 C.ar    1  UNL1        0.0339
      3 C         140.5162  141.1768  165.7580 C.ar    1  UNL1        0.0848
      4 N         139.7213  140.1413  165.0192 N.ar    1  UNL1       -0.2178
      5 C         139.7270  140.1207  163.5194 C.ar    1  UNL1        0.2327
      6 N         140.5275  141.1356  162.7584 N.ar    1  UNL1       -0.2222
      7 C         140.5105  141.1975  167.2579 C.ar    1  UNL1        0.0177
      8 C         139.5427  140.3383  168.0162 C.ar    1  UNL1        0.0015
      9 C         139.5370  140.3589  169.5160 C.ar    1  UNL1       -0.0000
     10 C         140.4992  141.2388  170.2576 C.ar    1  UNL1        0.0039
     11 C         141.4671  142.0981  169.4994 C.ar    1  UNL1        0.0715
     12 C         141.4727  142.0774  167.9995 C.ar    1  UNL1        0.0053
     13 C         142.4292  142.9780  170.2410 C.3     1  UNL1        0.4186
     14 F         143.3914  143.8578  170.9825 F       1  UNL1       -0.1659
     15 F         141.4476  144.1100  170.1713 F       1  UNL1       -0.1659
     16 F         143.4108  141.8459  170.3106 F       1  UNL1       -0.1659
     17 C         138.9322  139.0851  162.7805 C.1     1  UNL1        0.1399
     18 N         138.1374  138.0496  162.0417 N.1     1  UNL1       -0.1876
     19 C         142.1229  143.1860  162.7362 C.3     1  UNL1        0.0474
     20 C         141.8252  144.6477  162.8940 C.3     1  UNL1        0.0234
     21 C         140.5153  145.2020  162.4176 C.3     1  UNL1        0.0689
     22 N         139.4290  145.5127  163.4043 N.3     1  UNL1       -0.2995
     23 H         139.8771  145.9581  164.2051 H       1  UNL1        0.1232
     24 C         138.2580  143.9644  162.5490 C.3     1  UNL1        0.0158
     25 C         138.5707  144.4087  163.9471 C.3     1  UNL1        0.0420
     26 C         138.8835  144.8530  165.3453 C.3     1  UNL1        0.0158
     27 C         137.7125  143.3048  164.4899 C.3     1  UNL1        0.0158
@<TRIPOS>BOND
     1    24    25    1
     2    25    26    1
     3    25    27    1
     4    25    22    1
     5    22    21    1
     6    21    20    1
     7    20    19    1
     8    19     1    1
     9     1     2   ar
    10     2     3   ar
    11     3     7    1
    12     7     8   ar
    13     8     9   ar
    14     9    10   ar
    15    10    11   ar
    16    11    13    1
    17    13    14    1
    18    13    15    1
    19    13    16    1
    20    11    12   ar
    21     3     4   ar
    22     4     5   ar
    23     5    17    1
    24    17    18    3
    25     5     6   ar
    26     6     1   ar
    27    12     7   ar
    28    22    23    1
@<TRIPOS>MOLECULE
*****
 27 28 0 0 0
SMALL
GASTEIGER

@<TRIPOS>ATOM
      1 C         141.6940  142.6013  163.7257 C.ar    1  UNL1        0.0628
      2 C         142.0365  142.4157  165.1742 C.ar    1  UNL1        0.0339
      3 C         141.9501  141.0537  165.7967 C.ar    1  UNL1        0.0848
      4 N         141.5213  139.8773  164.9707 N.ar    1  UNL1       -0.2178
      5 C         141.1789  140.0630  163.5222 C.ar    1  UNL1        0.2327
      6 N         141.2652  141.4250  162.8997 N.ar    1  UNL1       -0.2222
      7 C         142.2927  140.8680  167.2453 C.ar    1  UNL1        0.0177
      8 C         142.2186  139.5039  167.8646 C.ar    1  UNL1        0.0015
      9 C         142.5610  139.3182  169.3131 C.ar    1  UNL1       -0.0000
     10 C         142.9776  140.4968  170.1423 C.ar    1  UNL1        0.0039
     11 C         143.0517  141.8609  169.5230 C.ar    1  UNL1        0.0715
     12 C         142.7092  142.0466  168.0744 C.ar    1  UNL1        0.0053
     13 C         143.4683  143.0394  170.3522 C.3     1  UNL1        0.4186
     14 F         143.8849  144.2179  171.1813 F       1  UNL1       -0.1659
     15 F         144.8995  142.6010  170.2563 F       1  UNL1       -0.1659
     16 F         142.0371  143.4779  170.4480 F       1  UNL1       -0.1659
     17 C         140.7500  138.8866  162.6961 C.1     1  UNL1        0.1399
     18 N         140.3212  137.7103  161.8701 N.1     1  UNL1       -0.1876
     19 C         141.7803  143.9633  163.1032 C.3     1  UNL1        0.0474
     20 C         142.9483  144.3165  162.2307 C.3     1  UNL1        0.0234
     21 C         144.3429  143.9904  162.6763 C.3     1  UNL1        0.0689
     22 N         145.0507  142.7949  162.1106 N.3     1  UNL1       -0.2995
     23 H         144.6800  142.6503  161.1714 H       1  UNL1        0.1232
     24 C         145.5125  142.1064  164.0633 C.3     1  UNL1        0.0158
     25 C         144.9714  141.4733  162.8157 C.3     1  UNL1        0.0420
     26 C         144.4304  140.8402  161.5681 C.3     1  UNL1        0.0158
     27 C         144.8921  140.1517  163.5208 C.3     1  UNL1        0.0158
@<TRIPOS>BOND
     1    24    25    1
     2    25    26    1
     3    25    27    1
     4    25    22    1
     5    22    21    1
     6    21    20    1
     7    20    19    1
     8    19     1    1
     9     1     2   ar
    10     2     3   ar
    11     3     7    1
    12     7     8   ar
    13     8     9   ar
    14     9    10   ar
    15    10    11   ar
    16    11    13    1
    17    13    14    1
    18    13    15    1
    19    13    16    1
    20    11    12   ar
    21     3     4   ar
    22     4     5   ar
    23     5    17    1
    24    17    18    3
    25     5     6   ar
    26     6     1   ar
    27    12     7   ar
    28    22    23    1
@<TRIPOS>MOLECULE
*****
 27 28 0 0 0
SMALL
GASTEIGER

@<TRIPOS>ATOM
      1 C         139.1966  139.7563  166.8742 C.ar    1  UNL1        0.0628
      2 C         140.0342  140.6611  166.0200 C.ar    1  UNL1        0.0339
      3 C         141.0128  141.6015  166.6587 C.ar    1  UNL1        0.0848
      4 N         141.1538  141.6371  168.1516 N.ar    1  UNL1       -0.2178
      5 C         140.3162  140.7323  169.0058 C.ar    1  UNL1        0.2327
      6 N         139.3376  139.7919  168.3671 N.ar    1  UNL1       -0.2222
      7 C         141.8505  142.5063  165.8044 C.ar    1  UNL1        0.0177
      8 C         143.3356  142.5660  166.0069 C.ar    1  UNL1        0.0015
      9 C         144.1732  143.4707  165.1527 C.ar    1  UNL1       -0.0000
     10 C         143.5258  144.3158  164.0959 C.ar    1  UNL1        0.0039
     11 C         142.0408  144.2562  163.8934 C.ar    1  UNL1        0.0715
     12 C         141.2031  143.3513  164.7477 C.ar    1  UNL1        0.0053
     13 C         141.3934  145.1012  162.8367 C.3     1  UNL1        0.4186
     14 F         140.7459  145.9463  161.7800 F       1  UNL1       -0.1659
     15 F         140.2451  145.3778  163.7613 F       1  UNL1       -0.1659
     16 F         142.5416  144.8246  161.9120 F       1  UNL1       -0.1659
     17 C         140.4571  140.7679  170.4988 C.1     1  UNL1        0.1399
     18 N         140.5980  140.8035  171.9917 N.1     1  UNL1       -0.1876
     19 C         138.2180  138.8159  166.2354 C.3     1  UNL1        0.0474
     20 C         138.7013  137.5405  165.6113 C.3     1  UNL1        0.0234
     21 C         139.6731  137.5854  164.4695 C.3     1  UNL1        0.0689
     22 N         141.1367  137.3749  164.7216 N.3     1  UNL1       -0.2995
     23 H         141.2458  137.2386  165.7265 H       1  UNL1        0.1232
     24 C         141.4289  138.5763  162.9979 C.3     1  UNL1        0.0158
     25 C         142.1263  138.4273  164.3175 C.3     1  UNL1        0.0420
     26 C         142.8237  138.2783  165.6372 C.3     1  UNL1        0.0158
     27 C         143.1159  139.4797  163.9134 C.3     1  UNL1        0.0158
@<TRIPOS>BOND
     1    24    25    1
     2    25    26    1
     3    25    27    1
     4    25    22    1
     5    22    21    1
     6    21    20    1
     7    20    19    1
     8    19     1    1
     9     1     2   ar
    10     2     3   ar
    11     3     7    1
    12     7     8   ar
    13     8     9   ar
    14     9    10   ar
    15    10    11   ar
    16    11    13    1
    17    13    14    1
    18    13    15    1
    19    13    16    1
    20    11    12   ar
    21     3     4   ar
    22     4     5   ar
    23     5    17    1
    24    17    18    3
    25     5     6   ar
    26     6     1   ar
    27    12     7   ar
    28    22    23    1
