@<TRIPOS>MOLECULE
*****
 24 27 0 0 0
SMALL
GASTEIGER

@<TRIPOS>ATOM
      1 C         138.5703  139.2765  165.6970 C.ar    1  UNL1       -0.0207
      2 C         138.8898  137.9478  165.0786 C.ar    1  UNL1       -0.0027
      3 C         138.9447  137.8090  163.5861 C.ar    1  UNL1        0.0188
      4 C         138.6800  138.9989  162.7119 C.ar    1  UNL1        0.0813
      5 N         138.7349  138.8601  161.2193 N.ar    1  UNL1       -0.2438
      6 C         138.4702  140.0500  160.3452 C.ar    1  UNL1        0.1004
      7 C         138.1506  141.3787  160.9637 C.ar    1  UNL1        0.0207
      8 C         138.0958  141.5175  162.4562 C.ar    1  UNL1        0.0031
      9 C         138.3605  140.3276  163.3303 C.ar    1  UNL1        0.0174
     10 C         138.3056  140.4664  164.8229 C.ar    1  UNL1       -0.0027
     11 C         138.5251  139.9112  158.8527 C.ar    1  UNL1        0.1180
     12 C         139.5673  139.0385  158.2184 C.ar    1  UNL1        0.1195
     13 N         139.6222  138.8997  156.7258 N.ar    1  UNL1       -0.2391
     14 C         138.6349  139.6336  155.8675 C.ar    1  UNL1        0.1195
     15 C         137.5927  140.5062  156.5018 C.ar    1  UNL1        0.1195
     16 N         137.5378  140.6451  157.9944 N.ar    1  UNL1       -0.2391
     17 C         138.5154  139.4153  167.1896 C.3     1  UNL1        0.0437
     18 C         139.7661  139.7153  167.9614 C.3     1  UNL1        0.0768
     19 C         140.9973  142.4650  166.7074 C.3     1  UNL1        0.0173
     20 C         140.4747  142.2889  168.1023 C.3     1  UNL1        0.0576
     21 C         140.4263  143.3457  169.1657 C.3     1  UNL1        0.0174
     22 C         139.8304  142.7349  170.3994 C.3     1  UNL1        0.0187
     23 C         139.5105  141.3006  170.0984 C.3     1  UNL1        0.0721
     24 N         139.9088  141.0250  168.6787 N.3     1  UNL1       -0.2737
@<TRIPOS>BOND
     1    20    19    1
     2    20    21    1
     3    21    22    1
     4    22    23    1
     5    23    24    1
     6    24    18    1
     7    18    17    1
     8    17     1    1
     9     1     2   ar
    10     2     3   ar
    11     3     4   ar
    12     4     5   ar
    13     5     6   ar
    14     6    11    1
    15    11    12   ar
    16    12    13   ar
    17    13    14   ar
    18    14    15   ar
    19    15    16   ar
    20     6     7   ar
    21     7     8   ar
    22     8     9   ar
    23     9    10   ar
    24    24    20    1
    25    10     1   ar
    26     9     4   ar
    27    16    11   ar
@<TRIPOS>MOLECULE
*****
 24 27 0 0 0
SMALL
GASTEIGER

@<TRIPOS>ATOM
      1 C         139.3453  137.6257  164.4975 C.ar    1  UNL1       -0.0207
      2 C         140.8278  137.4329  164.6195 C.ar    1  UNL1       -0.0027
      3 C         141.7044  137.5738  163.4104 C.ar    1  UNL1        0.0188
      4 C         141.0984  137.9074  162.0795 C.ar    1  UNL1        0.0813
      5 N         141.9751  138.0482  160.8704 N.ar    1  UNL1       -0.2438
      6 C         141.3691  138.3818  159.5394 C.ar    1  UNL1        0.1004
      7 C         139.8865  138.5745  159.4175 C.ar    1  UNL1        0.0207
      8 C         139.0099  138.4337  160.6265 C.ar    1  UNL1        0.0031
      9 C         139.6159  138.1001  161.9575 C.ar    1  UNL1        0.0174
     10 C         138.7393  137.9592  163.1665 C.ar    1  UNL1       -0.0027
     11 C         142.2456  138.5227  158.3304 C.ar    1  UNL1        0.1180
     12 C         143.2735  139.6137  158.2722 C.ar    1  UNL1        0.1195
     13 N         144.1500  139.7545  157.0632 N.ar    1  UNL1       -0.2391
     14 C         143.9988  138.8044  155.9123 C.ar    1  UNL1        0.1195
     15 C         142.9710  137.7135  155.9705 C.ar    1  UNL1        0.1195
     16 N         142.0944  137.5726  157.1796 N.ar    1  UNL1       -0.2391
     17 C         138.4687  137.4848  165.7066 C.3     1  UNL1        0.0437
     18 C         138.0332  138.7044  166.4634 C.3     1  UNL1        0.0768
     19 C         138.2015  141.2906  164.4803 C.3     1  UNL1        0.0173
     20 C         139.0444  141.0578  165.6989 C.3     1  UNL1        0.0576
     21 C         140.1127  141.9728  166.2201 C.3     1  UNL1        0.0174
     22 C         140.6956  141.3495  167.4537 C.3     1  UNL1        0.0187
     23 C         139.9875  140.0493  167.6950 C.3     1  UNL1        0.0721
     24 N         138.9671  139.8691  166.6105 N.3     1  UNL1       -0.2737
@<TRIPOS>BOND
     1    20    19    1
     2    20    21    1
     3    21    22    1
     4    22    23    1
     5    23    24    1
     6    24    18    1
     7    18    17    1
     8    17     1    1
     9     1     2   ar
    10     2     3   ar
    11     3     4   ar
    12     4     5   ar
    13     5     6   ar
    14     6    11    1
    15    11    12   ar
    16    12    13   ar
    17    13    14   ar
    18    14    15   ar
    19    15    16   ar
    20     6     7   ar
    21     7     8   ar
    22     8     9   ar
    23     9    10   ar
    24    24    20    1
    25    10     1   ar
    26     9     4   ar
    27    16    11   ar
@<TRIPOS>MOLECULE
*****
 24 27 0 0 0
SMALL
GASTEIGER

@<TRIPOS>ATOM
      1 C         142.1474  139.9672  167.2097 C.ar    1  UNL1       -0.0207
      2 C         140.8527  139.6235  166.5349 C.ar    1  UNL1       -0.0027
      3 C         140.4266  140.3697  165.3055 C.ar    1  UNL1        0.0188
      4 C         141.2952  141.4596  164.7509 C.ar    1  UNL1        0.0813
      5 N         140.8690  142.2059  163.5214 N.ar    1  UNL1       -0.2438
      6 C         141.7376  143.2958  162.9668 C.ar    1  UNL1        0.1004
      7 C         143.0325  143.6395  163.6417 C.ar    1  UNL1        0.0207
      8 C         143.4586  142.8932  164.8712 C.ar    1  UNL1        0.0031
      9 C         142.5900  141.8033  165.4257 C.ar    1  UNL1        0.0174
     10 C         143.0161  141.0571  166.6551 C.ar    1  UNL1       -0.0027
     11 C         141.3115  144.0421  161.7374 C.ar    1  UNL1        0.1180
     12 C         140.1670  145.0093  161.8061 C.ar    1  UNL1        0.1195
     13 N         139.7409  145.7555  160.5767 N.ar    1  UNL1       -0.2391
     14 C         140.4592  145.5346  159.2786 C.ar    1  UNL1        0.1195
     15 C         141.6037  144.5674  159.2098 C.ar    1  UNL1        0.1195
     16 N         142.0299  143.8211  160.4393 N.ar    1  UNL1       -0.2391
     17 C         142.5736  139.2209  168.4392 C.3     1  UNL1        0.0437
     18 C         142.2449  139.7644  169.7981 C.3     1  UNL1        0.0768
     19 C         143.8657  142.5958  169.8719 C.3     1  UNL1        0.0173
     20 C         142.3781  142.4288  169.9668 C.3     1  UNL1        0.0576
     21 C         141.3743  143.5339  170.1123 C.3     1  UNL1        0.0174
     22 C         140.0088  142.9153  170.1683 C.3     1  UNL1        0.0187
     23 C         140.1688  141.4280  170.0574 C.3     1  UNL1        0.0721
     24 N         141.6331  141.1273  169.9329 N.3     1  UNL1       -0.2737
@<TRIPOS>BOND
     1    20    19    1
     2    20    21    1
     3    21    22    1
     4    22    23    1
     5    23    24    1
     6    24    18    1
     7    18    17    1
     8    17     1    1
     9     1     2   ar
    10     2     3   ar
    11     3     4   ar
    12     4     5   ar
    13     5     6   ar
    14     6    11    1
    15    11    12   ar
    16    12    13   ar
    17    13    14   ar
    18    14    15   ar
    19    15    16   ar
    20     6     7   ar
    21     7     8   ar
    22     8     9   ar
    23     9    10   ar
    24    24    20    1
    25    10     1   ar
    26     9     4   ar
    27    16    11   ar
@<TRIPOS>MOLECULE
*****
 24 27 0 0 0
SMALL
GASTEIGER

@<TRIPOS>ATOM
      1 C         139.4617  140.4104  166.8610 C.ar    1  UNL1       -0.0207
      2 C         139.0624  139.5388  165.7075 C.ar    1  UNL1       -0.0027
      3 C         139.1713  140.0561  164.3037 C.ar    1  UNL1        0.0188
      4 C         139.6796  141.4450  164.0536 C.ar    1  UNL1        0.0813
      5 N         139.7885  141.9623  162.6498 N.ar    1  UNL1       -0.2438
      6 C         140.2968  143.3512  162.3997 C.ar    1  UNL1        0.1004
      7 C         140.6961  144.2228  163.5533 C.ar    1  UNL1        0.0207
      8 C         140.5872  143.7055  164.9570 C.ar    1  UNL1        0.0031
      9 C         140.0789  142.3166  165.2072 C.ar    1  UNL1        0.0174
     10 C         139.9700  141.7993  166.6109 C.ar    1  UNL1       -0.0027
     11 C         140.4058  143.8685  160.9959 C.ar    1  UNL1        0.1180
     12 C         141.4822  144.8507  160.6400 C.ar    1  UNL1        0.1195
     13 N         141.5912  145.3681  159.2363 N.ar    1  UNL1       -0.2391
     14 C         140.6237  144.9032  158.1884 C.ar    1  UNL1        0.1195
     15 C         139.5473  143.9211  158.5443 C.ar    1  UNL1        0.1195
     16 N         139.4383  143.4037  159.9481 N.ar    1  UNL1       -0.2391
     17 C         139.3527  139.8931  168.2649 C.3     1  UNL1        0.0437
     18 C         139.6281  140.8049  169.4236 C.3     1  UNL1        0.0768
     19 C         140.4530  143.9292  169.8789 C.3     1  UNL1        0.0173
     20 C         141.3948  142.7618  169.8642 C.3     1  UNL1        0.0576
     21 C         142.8811  142.8256  170.0563 C.3     1  UNL1        0.0174
     22 C         143.4205  141.4288  169.9657 C.3     1  UNL1        0.0187
     23 C         142.2675  140.5018  169.7176 C.3     1  UNL1        0.0721
     24 N         141.0156  141.3258  169.6550 N.3     1  UNL1       -0.2737
@<TRIPOS>BOND
     1    20    19    1
     2    20    21    1
     3    21    22    1
     4    22    23    1
     5    23    24    1
     6    24    18    1
     7    18    17    1
     8    17     1    1
     9     1     2   ar
    10     2     3   ar
    11     3     4   ar
    12     4     5   ar
    13     5     6   ar
    14     6    11    1
    15    11    12   ar
    16    12    13   ar
    17    13    14   ar
    18    14    15   ar
    19    15    16   ar
    20     6     7   ar
    21     7     8   ar
    22     8     9   ar
    23     9    10   ar
    24    24    20    1
    25    10     1   ar
    26     9     4   ar
    27    16    11   ar
@<TRIPOS>MOLECULE
*****
 24 27 0 0 0
SMALL
GASTEIGER

@<TRIPOS>ATOM
      1 C         142.7116  138.4375  165.2891 C.ar    1  UNL1       -0.0207
      2 C         141.5321  137.5816  164.9340 C.ar    1  UNL1       -0.0027
      3 C         141.1997  137.3227  163.4944 C.ar    1  UNL1        0.0188
      4 C         142.0467  137.9198  162.4100 C.ar    1  UNL1        0.0813
      5 N         141.7142  137.6608  160.9703 N.ar    1  UNL1       -0.2438
      6 C         142.5613  138.2578  159.8859 C.ar    1  UNL1        0.1004
      7 C         143.7409  139.1138  160.2411 C.ar    1  UNL1        0.0207
      8 C         144.0733  139.3726  161.6806 C.ar    1  UNL1        0.0031
      9 C         143.2263  138.7756  162.7651 C.ar    1  UNL1        0.0174
     10 C         143.5587  139.0345  164.2047 C.ar    1  UNL1       -0.0027
     11 C         142.2289  137.9990  158.4463 C.ar    1  UNL1        0.1180
     12 C         140.9983  138.6056  157.8399 C.ar    1  UNL1        0.1195
     13 N         140.6658  138.3467  156.4003 N.ar    1  UNL1       -0.2391
     14 C         141.5640  137.4812  155.5671 C.ar    1  UNL1        0.1195
     15 C         142.7945  136.8746  156.1734 C.ar    1  UNL1        0.1195
     16 N         143.1270  137.1334  157.6131 N.ar    1  UNL1       -0.2391
     17 C         143.0441  138.6964  166.7287 C.3     1  UNL1        0.0437
     18 C         142.6588  139.9990  167.3649 C.3     1  UNL1        0.0768
     19 C         139.4916  140.2626  166.6242 C.3     1  UNL1        0.0173
     20 C         140.0691  140.1694  168.0053 C.3     1  UNL1        0.0576
     21 C         139.2924  140.1809  169.2885 C.3     1  UNL1        0.0174
     22 C         140.2681  140.0669  170.4221 C.3     1  UNL1        0.0187
     23 C         141.6480  139.9848  169.8394 C.3     1  UNL1        0.0721
     24 N         141.5249  140.0482  168.3458 N.3     1  UNL1       -0.2737
@<TRIPOS>BOND
     1    20    19    1
     2    20    21    1
     3    21    22    1
     4    22    23    1
     5    23    24    1
     6    24    18    1
     7    18    17    1
     8    17     1    1
     9     1     2   ar
    10     2     3   ar
    11     3     4   ar
    12     4     5   ar
    13     5     6   ar
    14     6    11    1
    15    11    12   ar
    16    12    13   ar
    17    13    14   ar
    18    14    15   ar
    19    15    16   ar
    20     6     7   ar
    21     7     8   ar
    22     8     9   ar
    23     9    10   ar
    24    24    20    1
    25    10     1   ar
    26     9     4   ar
    27    16    11   ar
@<TRIPOS>MOLECULE
*****
 24 27 0 0 0
SMALL
GASTEIGER

@<TRIPOS>ATOM
      1 C         143.0080  142.6902  165.8435 C.ar    1  UNL1       -0.0207
      2 C         144.2264  143.2860  165.2027 C.ar    1  UNL1       -0.0027
      3 C         144.1487  143.8336  163.8085 C.ar    1  UNL1        0.0188
      4 C         142.8526  143.7855  163.0550 C.ar    1  UNL1        0.0813
      5 N         142.7749  144.3332  161.6606 N.ar    1  UNL1       -0.2438
      6 C         141.4788  144.2851  160.9071 C.ar    1  UNL1        0.1004
      7 C         140.2604  143.6893  161.5479 C.ar    1  UNL1        0.0207
      8 C         140.3381  143.1417  162.9421 C.ar    1  UNL1        0.0031
      9 C         141.6342  143.1898  163.6957 C.ar    1  UNL1        0.0174
     10 C         141.7119  142.6421  165.0899 C.ar    1  UNL1       -0.0027
     11 C         141.4011  144.8328  159.5128 C.ar    1  UNL1        0.1180
     12 C         140.1946  145.6115  159.0791 C.ar    1  UNL1        0.1195
     13 N         140.1169  146.1591  157.6848 N.ar    1  UNL1       -0.2391
     14 C         141.2456  145.9281  156.7243 C.ar    1  UNL1        0.1195
     15 C         142.4520  145.1494  157.1580 C.ar    1  UNL1        0.1195
     16 N         142.5298  144.6017  158.5523 N.ar    1  UNL1       -0.2391
     17 C         143.0857  142.1425  167.2378 C.3     1  UNL1        0.0437
     18 C         142.5746  140.7632  167.5313 C.3     1  UNL1        0.0768
     19 C         139.4461  140.2639  166.7488 C.3     1  UNL1        0.0173
     20 C         140.0055  140.3429  168.1383 C.3     1  UNL1        0.0576
     21 C         139.2252  140.2062  169.4120 C.3     1  UNL1        0.0174
     22 C         140.1810  140.3512  170.5590 C.3     1  UNL1        0.0187
     23 C         141.5521  140.5776  169.9941 C.3     1  UNL1        0.0721
     24 N         141.4436  140.5724  168.4980 N.3     1  UNL1       -0.2737
@<TRIPOS>BOND
     1    20    19    1
     2    20    21    1
     3    21    22    1
     4    22    23    1
     5    23    24    1
     6    24    18    1
     7    18    17    1
     8    17     1    1
     9     1     2   ar
    10     2     3   ar
    11     3     4   ar
    12     4     5   ar
    13     5     6   ar
    14     6    11    1
    15    11    12   ar
    16    12    13   ar
    17    13    14   ar
    18    14    15   ar
    19    15    16   ar
    20     6     7   ar
    21     7     8   ar
    22     8     9   ar
    23     9    10   ar
    24    24    20    1
    25    10     1   ar
    26     9     4   ar
    27    16    11   ar
@<TRIPOS>MOLECULE
*****
 24 27 0 0 0
SMALL
GASTEIGER

@<TRIPOS>ATOM
      1 C         142.8639  138.5048  165.3438 C.ar    1  UNL1       -0.0207
      2 C         141.6605  137.6615  165.0429 C.ar    1  UNL1       -0.0027
      3 C         141.2681  137.3952  163.6199 C.ar    1  UNL1        0.0188
      4 C         142.0791  137.9723  162.4977 C.ar    1  UNL1        0.0813
      5 N         141.6867  137.7059  161.0746 N.ar    1  UNL1       -0.2438
      6 C         142.4977  138.2829  159.9524 C.ar    1  UNL1        0.1004
      7 C         143.7012  139.1263  160.2534 C.ar    1  UNL1        0.0207
      8 C         144.0936  139.3926  161.6764 C.ar    1  UNL1        0.0031
      9 C         143.2826  138.8156  162.7986 C.ar    1  UNL1        0.0174
     10 C         143.6750  139.0819  164.2216 C.ar    1  UNL1       -0.0027
     11 C         142.1053  138.0167  158.5294 C.ar    1  UNL1        0.1180
     12 C         140.7784  138.4918  158.0158 C.ar    1  UNL1        0.1195
     13 N         140.3860  138.2255  156.5928 N.ar    1  UNL1       -0.2391
     14 C         141.3205  137.4841  155.6833 C.ar    1  UNL1        0.1195
     15 C         142.6473  137.0090  156.1968 C.ar    1  UNL1        0.1195
     16 N         143.0398  137.2753  157.6199 N.ar    1  UNL1       -0.2391
     17 C         143.2564  138.7712  166.7669 C.3     1  UNL1        0.0437
     18 C         142.5999  139.8829  167.5304 C.3     1  UNL1        0.0768
     19 C         139.3593  139.8504  167.1477 C.3     1  UNL1        0.0173
     20 C         140.2979  140.8989  166.6283 C.3     1  UNL1        0.0576
     21 C         139.9118  142.1164  165.8419 C.3     1  UNL1        0.0174
     22 C         141.1627  142.8839  165.5318 C.3     1  UNL1        0.0187
     23 C         142.3220  142.1406  166.1266 C.3     1  UNL1        0.0721
     24 N         141.7874  140.9138  166.8043 N.3     1  UNL1       -0.2737
@<TRIPOS>BOND
     1    20    19    1
     2    20    21    1
     3    21    22    1
     4    22    23    1
     5    23    24    1
     6    24    18    1
     7    18    17    1
     8    17     1    1
     9     1     2   ar
    10     2     3   ar
    11     3     4   ar
    12     4     5   ar
    13     5     6   ar
    14     6    11    1
    15    11    12   ar
    16    12    13   ar
    17    13    14   ar
    18    14    15   ar
    19    15    16   ar
    20     6     7   ar
    21     7     8   ar
    22     8     9   ar
    23     9    10   ar
    24    24    20    1
    25    10     1   ar
    26     9     4   ar
    27    16    11   ar
@<TRIPOS>MOLECULE
*****
 24 27 0 0 0
SMALL
GASTEIGER

@<TRIPOS>ATOM
      1 C         141.8717  139.6521  168.0142 C.ar    1  UNL1       -0.0207
      2 C         142.9691  140.1305  167.1105 C.ar    1  UNL1       -0.0027
      3 C         142.6448  140.6150  165.7285 C.ar    1  UNL1        0.0188
      4 C         141.2232  140.6211  165.2502 C.ar    1  UNL1        0.0813
      5 N         140.8989  141.1056  163.8680 N.ar    1  UNL1       -0.2438
      6 C         139.4772  141.1117  163.3897 C.ar    1  UNL1        0.1004
      7 C         138.3798  140.6332  164.2936 C.ar    1  UNL1        0.0207
      8 C         138.7041  140.1488  165.6756 C.ar    1  UNL1        0.0031
      9 C         140.1257  140.1427  166.1539 C.ar    1  UNL1        0.0174
     10 C         140.4500  139.6582  167.5359 C.ar    1  UNL1       -0.0027
     11 C         139.1529  141.5961  162.0077 C.ar    1  UNL1        0.1180
     12 C         139.3247  143.0455  161.6615 C.ar    1  UNL1        0.1195
     13 N         139.0004  143.5300  160.2794 N.ar    1  UNL1       -0.2391
     14 C         138.5044  142.5651  159.2435 C.ar    1  UNL1        0.1195
     15 C         138.3327  141.1158  159.5897 C.ar    1  UNL1        0.1195
     16 N         138.6569  140.6313  160.9718 N.ar    1  UNL1       -0.2391
     17 C         142.1960  139.1676  169.3964 C.3     1  UNL1        0.0437
     18 C         141.8970  140.0336  170.5841 C.3     1  UNL1        0.0768
     19 C         143.7988  142.5867  169.8675 C.3     1  UNL1        0.0173
     20 C         142.3111  142.6209  170.0553 C.3     1  UNL1        0.0576
     21 C         141.4363  143.8345  169.9468 C.3     1  UNL1        0.0174
     22 C         140.0214  143.4110  170.2090 C.3     1  UNL1        0.0187
     23 C         140.0217  141.9356  170.4797 C.3     1  UNL1        0.0721
     24 N         141.4369  141.4473  170.3847 N.3     1  UNL1       -0.2737
@<TRIPOS>BOND
     1    20    19    1
     2    20    21    1
     3    21    22    1
     4    22    23    1
     5    23    24    1
     6    24    18    1
     7    18    17    1
     8    17     1    1
     9     1     2   ar
    10     2     3   ar
    11     3     4   ar
    12     4     5   ar
    13     5     6   ar
    14     6    11    1
    15    11    12   ar
    16    12    13   ar
    17    13    14   ar
    18    14    15   ar
    19    15    16   ar
    20     6     7   ar
    21     7     8   ar
    22     8     9   ar
    23     9    10   ar
    24    24    20    1
    25    10     1   ar
    26     9     4   ar
    27    16    11   ar
@<TRIPOS>MOLECULE
*****
 24 27 0 0 0
SMALL
GASTEIGER

@<TRIPOS>ATOM
      1 C         138.5702  139.0237  165.4871 C.ar    1  UNL1       -0.0207
      2 C         139.1488  137.7553  164.9336 C.ar    1  UNL1       -0.0027
      3 C         139.3281  137.5964  163.4529 C.ar    1  UNL1        0.0188
      4 C         138.9288  138.7059  162.5257 C.ar    1  UNL1        0.0813
      5 N         139.1082  138.5470  161.0449 N.ar    1  UNL1       -0.2438
      6 C         138.7090  139.6565  160.1177 C.ar    1  UNL1        0.1004
      7 C         138.1304  140.9249  160.6714 C.ar    1  UNL1        0.0207
      8 C         137.9510  141.0838  162.1521 C.ar    1  UNL1        0.0031
      9 C         138.3503  139.9743  163.0792 C.ar    1  UNL1        0.0174
     10 C         138.1709  140.1332  164.5599 C.ar    1  UNL1       -0.0027
     11 C         138.8883  139.4976  158.6370 C.ar    1  UNL1        0.1180
     12 C         138.4263  140.5786  157.7053 C.ar    1  UNL1        0.1195
     13 N         138.6057  140.4197  156.2246 N.ar    1  UNL1       -0.2391
     14 C         139.2469  139.1798  155.6755 C.ar    1  UNL1        0.1195
     15 C         139.7089  138.0988  156.6072 C.ar    1  UNL1        0.1195
     16 N         139.5296  138.2577  158.0880 N.ar    1  UNL1       -0.2391
     17 C         138.3908  139.1826  166.9679 C.3     1  UNL1        0.0437
     18 C         139.4394  139.8839  167.7794 C.3     1  UNL1        0.0768
     19 C         140.1416  142.7639  166.4148 C.3     1  UNL1        0.0173
     20 C         141.0683  141.5893  166.5209 C.3     1  UNL1        0.0576
     21 C         142.4805  141.5321  166.0185 C.3     1  UNL1        0.0174
     22 C         143.0306  140.1730  166.3352 C.3     1  UNL1        0.0187
     23 C         141.9583  139.3902  167.0335 C.3     1  UNL1        0.0721
     24 N         140.7456  140.2655  167.1482 N.3     1  UNL1       -0.2737
@<TRIPOS>BOND
     1    20    19    1
     2    20    21    1
     3    21    22    1
     4    22    23    1
     5    23    24    1
     6    24    18    1
     7    18    17    1
     8    17     1    1
     9     1     2   ar
    10     2     3   ar
    11     3     4   ar
    12     4     5   ar
    13     5     6   ar
    14     6    11    1
    15    11    12   ar
    16    12    13   ar
    17    13    14   ar
    18    14    15   ar
    19    15    16   ar
    20     6     7   ar
    21     7     8   ar
    22     8     9   ar
    23     9    10   ar
    24    24    20    1
    25    10     1   ar
    26     9     4   ar
    27    16    11   ar
