@<TRIPOS>MOLECULE
*****
 30 34 0 0 0
SMALL
GASTEIGER

@<TRIPOS>ATOM
      1 C         141.1408  140.2482  166.7433 C.ar    1  UNL1        0.0834
      2 C         140.5477  140.4878  165.3866 C.ar    1  UNL1        0.0273
      3 C         141.0580  139.7257  164.1998 C.ar    1  UNL1        0.0528
      4 S         140.6716  139.7484  162.7506 S.2     1  UNL1       -0.0514
      5 C         141.5362  138.7607  162.0247 C.ar    1  UNL1        0.1631
      6 N         142.4570  138.1275  163.0254 N.ar    1  UNL1       -0.2225
      7 C         142.1615  138.7240  164.3696 C.ar    1  UNL1        0.1084
      8 C         142.7546  138.4843  165.7263 C.ar    1  UNL1        0.1184
      9 N         142.2443  139.2464  166.9132 N.ar    1  UNL1       -0.2422
     10 N         139.0995  143.2965  171.4911 N.pl3   1  UNL1       -0.3426
     11 C         139.6098  142.5345  170.3042 C.ar    1  UNL1        0.1254
     12 C         140.4160  143.2368  169.2521 C.ar    1  UNL1        0.0339
     13 C         140.9263  142.4746  168.0651 C.ar    1  UNL1        0.0059
     14 C         140.6305  141.0103  167.9303 C.ar    1  UNL1        0.0369
     15 C         139.8243  140.3081  168.9824 C.ar    1  UNL1        0.1017
     16 N         139.3140  141.0701  170.1693 N.ar    1  UNL1       -0.2296
     17 H         139.2937  144.2576  171.5796 H       1  UNL1        0.1437
     18 H         138.5704  142.8356  172.1816 H       1  UNL1        0.1437
     19 N         141.4883  138.4590  160.5561 N.pl3   1  UNL1       -0.2881
     20 C         142.7193  137.9737  159.8497 C.3     1  UNL1        0.0940
     21 C         142.6715  137.6721  158.3811 C.3     1  UNL1        0.0375
     22 C         141.3927  137.8557  157.6190 C.3     1  UNL1        0.0609
     23 C         140.1617  138.3410  158.3254 C.3     1  UNL1        0.0375
     24 C         140.2096  138.6427  159.7940 C.3     1  UNL1        0.0940
     25 N         141.3449  137.5541  156.1504 N.3     1  UNL1       -0.2738
     26 C         142.4750  137.9789  155.2603 C.3     1  UNL1        0.0720
     27 C         142.4272  137.6773  153.7917 C.3     1  UNL1        0.0174
     28 C         141.2493  136.9508  153.2133 C.3     1  UNL1        0.0029
     29 C         140.1192  136.5259  154.1034 C.3     1  UNL1        0.0174
     30 C         140.1670  136.8276  155.5719 C.3     1  UNL1        0.0720
@<TRIPOS>BOND
     1    10    11    1
     2    11    12   ar
     3    12    13   ar
     4    13    14   ar
     5    14     1    1
     6     1     2   ar
     7     2     3   ar
     8     3     4   ar
     9     4     5   ar
    10     5    19    1
    11    19    20    1
    12    20    21    1
    13    21    22    1
    14    22    25    1
    15    25    26    1
    16    26    27    1
    17    27    28    1
    18    28    29    1
    19    29    30    1
    20    22    23    1
    21    23    24    1
    22     5     6   ar
    23     6     7   ar
    24     7     8   ar
    25     8     9   ar
    26    14    15   ar
    27    15    16   ar
    28    16    11   ar
    29     9     1   ar
    30     7     3   ar
    31    24    19    1
    32    30    25    1
    33    10    17    1
    34    10    18    1
@<TRIPOS>MOLECULE
*****
 30 34 0 0 0
SMALL
GASTEIGER

@<TRIPOS>ATOM
      1 C         141.5348  142.2913  166.5682 C.ar    1  UNL1        0.0834
      2 C         142.2848  142.2736  165.2694 C.ar    1  UNL1        0.0273
      3 C         141.7057  142.9453  164.0597 C.ar    1  UNL1        0.0528
      4 S         142.2102  143.0914  162.6547 S.2     1  UNL1       -0.0514
      5 C         141.1929  143.8711  161.8755 C.ar    1  UNL1        0.1631
      6 N         140.0595  144.2068  162.7990 N.ar    1  UNL1       -0.2225
      7 C         140.3764  143.6347  164.1489 C.ar    1  UNL1        0.1084
      8 C         139.6264  143.6523  165.4477 C.ar    1  UNL1        0.1184
      9 N         140.2055  142.9807  166.6574 N.ar    1  UNL1       -0.2422
     10 N         143.8513  139.6045  171.4072 N.pl3   1  UNL1       -0.3426
     11 C         143.2722  140.2762  170.1975 C.ar    1  UNL1        0.1254
     12 C         143.2420  141.7736  170.1134 C.ar    1  UNL1        0.0339
     13 C         142.6629  142.4453  168.9036 C.ar    1  UNL1        0.0059
     14 C         142.1139  141.6196  167.7780 C.ar    1  UNL1        0.0369
     15 C         142.1441  140.1223  167.8621 C.ar    1  UNL1        0.1017
     16 N         142.7232  139.4506  169.0718 N.ar    1  UNL1       -0.2296
     17 H         144.2116  140.1464  172.1459 H       1  UNL1        0.1437
     18 H         143.8711  138.6218  171.4624 H       1  UNL1        0.1437
     19 N         141.2916  144.2486  160.4271 N.pl3   1  UNL1       -0.2881
     20 C         142.3567  143.6398  159.5642 C.3     1  UNL1        0.0940
     21 C         142.4554  144.0174  158.1159 C.3     1  UNL1        0.0375
     22 C         141.4889  145.0038  157.5305 C.3     1  UNL1        0.0609
     23 C         140.4237  145.6127  158.3934 C.3     1  UNL1        0.0375
     24 C         140.3251  145.2351  159.8417 C.3     1  UNL1        0.0940
     25 N         141.5876  145.3814  156.0821 N.3     1  UNL1       -0.2738
     26 C         142.6919  144.8224  155.2349 C.3     1  UNL1        0.0720
     27 C         142.7906  145.2000  153.7865 C.3     1  UNL1        0.0174
     28 C         141.7849  146.1366  153.1854 C.3     1  UNL1        0.0029
     29 C         140.6805  146.6956  154.0327 C.3     1  UNL1        0.0174
     30 C         140.5819  146.3180  155.4810 C.3     1  UNL1        0.0720
@<TRIPOS>BOND
     1    10    11    1
     2    11    12   ar
     3    12    13   ar
     4    13    14   ar
     5    14     1    1
     6     1     2   ar
     7     2     3   ar
     8     3     4   ar
     9     4     5   ar
    10     5    19    1
    11    19    20    1
    12    20    21    1
    13    21    22    1
    14    22    25    1
    15    25    26    1
    16    26    27    1
    17    27    28    1
    18    28    29    1
    19    29    30    1
    20    22    23    1
    21    23    24    1
    22     5     6   ar
    23     6     7   ar
    24     7     8   ar
    25     8     9   ar
    26    14    15   ar
    27    15    16   ar
    28    16    11   ar
    29     9     1   ar
    30     7     3   ar
    31    24    19    1
    32    30    25    1
    33    10    17    1
    34    10    18    1
@<TRIPOS>MOLECULE
*****
 30 34 0 0 0
SMALL
GASTEIGER

@<TRIPOS>ATOM
      1 C         142.0472  142.0567  166.4563 C.ar    1  UNL1        0.0834
      2 C         141.1425  142.2436  165.2746 C.ar    1  UNL1        0.0273
      3 C         141.6667  142.8810  164.0221 C.ar    1  UNL1        0.0528
      4 S         141.0162  143.1943  162.7073 S.2     1  UNL1       -0.0514
      5 C         142.0431  143.8386  161.8239 C.ar    1  UNL1        0.1631
      6 N         143.3283  143.9234  162.5927 N.ar    1  UNL1       -0.2225
      7 C         143.0957  143.3315  163.9513 C.ar    1  UNL1        0.1084
      8 C         144.0004  143.1447  165.1330 C.ar    1  UNL1        0.1184
      9 N         143.4762  142.5073  166.3855 N.ar    1  UNL1       -0.2422
     10 N         139.9505  139.5071  171.4667 N.pl3   1  UNL1       -0.3426
     11 C         140.4747  140.1445  170.2141 C.ar    1  UNL1        0.1254
     12 C         139.5943  140.2572  169.0049 C.ar    1  UNL1        0.0339
     13 C         140.1185  140.8946  167.7523 C.ar    1  UNL1        0.0059
     14 C         141.5230  141.4193  167.7089 C.ar    1  UNL1        0.0369
     15 C         142.4034  141.3067  168.9182 C.ar    1  UNL1        0.1017
     16 N         141.8793  140.6693  170.1707 N.ar    1  UNL1       -0.2296
     17 H         139.0287  139.1627  171.4952 H       1  UNL1        0.1437
     18 H         140.5284  139.4332  172.2603 H       1  UNL1        0.1437
     19 N         141.8234  144.3145  160.4184 N.pl3   1  UNL1       -0.2881
     20 C         142.6671  143.7729  159.3027 C.3     1  UNL1        0.0940
     21 C         142.4474  144.2488  157.8973 C.3     1  UNL1        0.0375
     22 C         141.3840  145.2662  157.6076 C.3     1  UNL1        0.0609
     23 C         140.5403  145.8078  158.7233 C.3     1  UNL1        0.0375
     24 C         140.7600  145.3319  160.1287 C.3     1  UNL1        0.0940
     25 N         141.1643  145.7421  156.2021 N.3     1  UNL1       -0.2738
     26 C         140.1119  146.7716  155.9148 C.3     1  UNL1        0.0720
     27 C         139.8922  147.2475  154.5093 C.3     1  UNL1        0.0174
     28 C         140.7249  146.6939  153.3912 C.3     1  UNL1        0.0029
     29 C         141.7772  145.6644  153.6786 C.3     1  UNL1        0.0174
     30 C         141.9969  145.1885  155.0840 C.3     1  UNL1        0.0720
@<TRIPOS>BOND
     1    10    11    1
     2    11    12   ar
     3    12    13   ar
     4    13    14   ar
     5    14     1    1
     6     1     2   ar
     7     2     3   ar
     8     3     4   ar
     9     4     5   ar
    10     5    19    1
    11    19    20    1
    12    20    21    1
    13    21    22    1
    14    22    25    1
    15    25    26    1
    16    26    27    1
    17    27    28    1
    18    28    29    1
    19    29    30    1
    20    22    23    1
    21    23    24    1
    22     5     6   ar
    23     6     7   ar
    24     7     8   ar
    25     8     9   ar
    26    14    15   ar
    27    15    16   ar
    28    16    11   ar
    29     9     1   ar
    30     7     3   ar
    31    24    19    1
    32    30    25    1
    33    10    17    1
    34    10    18    1
@<TRIPOS>MOLECULE
*****
 30 34 0 0 0
SMALL
GASTEIGER

@<TRIPOS>ATOM
      1 C         141.1256  142.0680  165.5032 C.ar    1  UNL1        0.0834
      2 C         141.7527  140.9350  164.7462 C.ar    1  UNL1        0.0273
      3 C         141.3448  140.6637  163.3285 C.ar    1  UNL1        0.0528
      4 S         141.7849  139.6263  162.3385 S.2     1  UNL1       -0.0514
      5 C         141.0220  139.8467  161.0659 C.ar    1  UNL1        0.1631
      6 N         140.1104  141.0204  161.2695 N.ar    1  UNL1       -0.2225
      7 C         140.3099  141.5253  162.6678 C.ar    1  UNL1        0.1084
      8 C         139.6828  142.6583  163.4248 C.ar    1  UNL1        0.1184
      9 N         140.0907  142.9296  164.8425 N.ar    1  UNL1       -0.2422
     10 N         142.7572  143.1536  171.1742 N.pl3   1  UNL1       -0.3426
     11 C         142.3493  142.8822  169.7565 C.ar    1  UNL1        0.1254
     12 C         140.9093  143.0028  169.3542 C.ar    1  UNL1        0.0339
     13 C         140.5014  142.7314  167.9364 C.ar    1  UNL1        0.0059
     14 C         141.5335  142.3394  166.9210 C.ar    1  UNL1        0.0369
     15 C         142.9735  142.2187  167.3233 C.ar    1  UNL1        0.1017
     16 N         143.3814  142.4901  168.7410 N.ar    1  UNL1       -0.2296
     17 H         142.0798  143.4109  171.8406 H       1  UNL1        0.1437
     18 H         143.7023  143.0744  171.4382 H       1  UNL1        0.1437
     19 N         141.1485  139.0359  159.8103 N.pl3   1  UNL1       -0.2881
     20 C         142.4729  138.4426  159.4309 C.3     1  UNL1        0.0940
     21 C         142.5994  137.6318  158.1753 C.3     1  UNL1        0.0375
     22 C         141.4016  137.4143  157.2991 C.3     1  UNL1        0.0609
     23 C         140.0772  138.0076  157.6785 C.3     1  UNL1        0.0375
     24 C         139.9507  138.8184  158.9341 C.3     1  UNL1        0.0940
     25 N         141.5281  136.6034  156.0435 N.3     1  UNL1       -0.2738
     26 C         142.5497  135.5085  155.9575 C.3     1  UNL1        0.0720
     27 C         142.6762  134.6977  154.7019 C.3     1  UNL1        0.0174
     28 C         141.7811  134.9818  153.5323 C.3     1  UNL1        0.0029
     29 C         140.7595  136.0767  153.6182 C.3     1  UNL1        0.0174
     30 C         140.6330  136.8875  154.8739 C.3     1  UNL1        0.0720
@<TRIPOS>BOND
     1    10    11    1
     2    11    12   ar
     3    12    13   ar
     4    13    14   ar
     5    14     1    1
     6     1     2   ar
     7     2     3   ar
     8     3     4   ar
     9     4     5   ar
    10     5    19    1
    11    19    20    1
    12    20    21    1
    13    21    22    1
    14    22    25    1
    15    25    26    1
    16    26    27    1
    17    27    28    1
    18    28    29    1
    19    29    30    1
    20    22    23    1
    21    23    24    1
    22     5     6   ar
    23     6     7   ar
    24     7     8   ar
    25     8     9   ar
    26    14    15   ar
    27    15    16   ar
    28    16    11   ar
    29     9     1   ar
    30     7     3   ar
    31    24    19    1
    32    30    25    1
    33    10    17    1
    34    10    18    1
@<TRIPOS>MOLECULE
*****
 30 34 0 0 0
SMALL
GASTEIGER

@<TRIPOS>ATOM
      1 C         140.4580  140.5260  165.5361 C.ar    1  UNL1        0.0834
      2 C         141.1895  141.4611  164.6194 C.ar    1  UNL1        0.0273
      3 C         140.5522  141.9047  163.3361 C.ar    1  UNL1        0.0528
      4 S         141.0269  142.8136  162.2413 S.2     1  UNL1       -0.0514
      5 C         139.9514  142.8838  161.1981 C.ar    1  UNL1        0.1631
      6 N         138.8119  142.0183  161.6481 N.ar    1  UNL1       -0.2225
      7 C         139.1832  141.4132  162.9695 C.ar    1  UNL1        0.1084
      8 C         138.4517  140.4781  163.8861 C.ar    1  UNL1        0.1184
      9 N         139.0890  140.0345  165.1695 N.ar    1  UNL1       -0.2422
     10 N         143.0074  138.7516  170.6695 N.pl3   1  UNL1       -0.3426
     11 C         142.3701  139.1952  169.3862 C.ar    1  UNL1        0.1254
     12 C         141.0228  139.8544  169.4066 C.ar    1  UNL1        0.0339
     13 C         140.3855  140.2981  168.1232 C.ar    1  UNL1        0.0059
     14 C         141.0953  140.0824  166.8195 C.ar    1  UNL1        0.0369
     15 C         142.4425  139.4231  166.7992 C.ar    1  UNL1        0.1017
     16 N         143.0799  138.9795  168.0825 N.ar    1  UNL1       -0.2296
     17 H         142.5415  138.8931  171.5252 H       1  UNL1        0.1437
     18 H         143.8916  138.3189  170.6562 H       1  UNL1        0.1437
     19 N         140.0058  143.6798  159.9279 N.pl3   1  UNL1       -0.2881
     20 C         139.3980  143.1300  158.6716 C.3     1  UNL1        0.0940
     21 C         139.4524  143.9260  157.4014 C.3     1  UNL1        0.0375
     22 C         140.1145  145.2718  157.3875 C.3     1  UNL1        0.0609
     23 C         140.7223  145.8217  158.6437 C.3     1  UNL1        0.0375
     24 C         140.6679  145.0257  159.9140 C.3     1  UNL1        0.0940
     25 N         140.1689  146.0678  156.1173 N.3     1  UNL1       -0.2738
     26 C         139.3425  147.3115  155.9756 C.3     1  UNL1        0.0720
     27 C         139.3969  148.1075  154.7054 C.3     1  UNL1        0.0174
     28 C         140.2777  147.6598  153.5768 C.3     1  UNL1        0.0029
     29 C         141.1041  146.4161  153.7185 C.3     1  UNL1        0.0174
     30 C         141.0497  145.6201  154.9887 C.3     1  UNL1        0.0720
@<TRIPOS>BOND
     1    10    11    1
     2    11    12   ar
     3    12    13   ar
     4    13    14   ar
     5    14     1    1
     6     1     2   ar
     7     2     3   ar
     8     3     4   ar
     9     4     5   ar
    10     5    19    1
    11    19    20    1
    12    20    21    1
    13    21    22    1
    14    22    25    1
    15    25    26    1
    16    26    27    1
    17    27    28    1
    18    28    29    1
    19    29    30    1
    20    22    23    1
    21    23    24    1
    22     5     6   ar
    23     6     7   ar
    24     7     8   ar
    25     8     9   ar
    26    14    15   ar
    27    15    16   ar
    28    16    11   ar
    29     9     1   ar
    30     7     3   ar
    31    24    19    1
    32    30    25    1
    33    10    17    1
    34    10    18    1
@<TRIPOS>MOLECULE
*****
 30 34 0 0 0
SMALL
GASTEIGER

@<TRIPOS>ATOM
      1 C         139.4420  141.3426  165.6771 C.ar    1  UNL1        0.0834
      2 C         140.2060  142.3131  164.8261 C.ar    1  UNL1        0.0273
      3 C         139.8263  142.5105  163.3884 C.ar    1  UNL1        0.0528
      4 S         140.3907  143.3907  162.3130 S.2     1  UNL1       -0.0514
      5 C         139.5959  143.1615  161.0617 C.ar    1  UNL1        0.1631
      6 N         138.5403  142.1396  161.3638 N.ar    1  UNL1       -0.2225
      7 C         138.6826  141.7372  162.8018 C.ar    1  UNL1        0.1084
      8 C         137.9187  140.7666  163.6528 C.ar    1  UNL1        0.1184
      9 N         138.2983  140.5693  165.0904 N.ar    1  UNL1       -0.2422
     10 N         140.9605  140.5530  171.4278 N.pl3   1  UNL1       -0.3426
     11 C         140.5809  140.7504  169.9902 C.ar    1  UNL1        0.1254
     12 C         141.0617  141.9614  169.2470 C.ar    1  UNL1        0.0339
     13 C         140.6821  142.1587  167.8092 C.ar    1  UNL1        0.0059
     14 C         139.8216  141.1452  167.1148 C.ar    1  UNL1        0.0369
     15 C         139.3408  139.9342  167.8580 C.ar    1  UNL1        0.1017
     16 N         139.7204  139.7368  169.2957 N.ar    1  UNL1       -0.2296
     17 H         141.5252  141.2182  171.8837 H       1  UNL1        0.1437
     18 H         140.6449  139.7582  171.9156 H       1  UNL1        0.1437
     19 N         139.8178  143.8358  159.7403 N.pl3   1  UNL1       -0.2881
     20 C         140.6002  145.1138  159.6724 C.3     1  UNL1        0.0940
     21 C         140.8221  145.7881  158.3510 C.3     1  UNL1        0.0375
     22 C         140.2616  145.1844  157.0975 C.3     1  UNL1        0.0609
     23 C         139.4792  143.9065  157.1653 C.3     1  UNL1        0.0375
     24 C         139.2573  143.2322  158.4867 C.3     1  UNL1        0.0940
     25 N         140.4835  145.8587  155.7761 N.3     1  UNL1       -0.2738
     26 C         139.8018  147.1603  155.4745 C.3     1  UNL1        0.0720
     27 C         140.0237  147.8346  154.1531 C.3     1  UNL1        0.0174
     28 C         140.9273  147.2073  153.1333 C.3     1  UNL1        0.0029
     29 C         141.6090  145.9057  153.4350 C.3     1  UNL1        0.0174
     30 C         141.3871  145.2314  154.7564 C.3     1  UNL1        0.0720
@<TRIPOS>BOND
     1    10    11    1
     2    11    12   ar
     3    12    13   ar
     4    13    14   ar
     5    14     1    1
     6     1     2   ar
     7     2     3   ar
     8     3     4   ar
     9     4     5   ar
    10     5    19    1
    11    19    20    1
    12    20    21    1
    13    21    22    1
    14    22    25    1
    15    25    26    1
    16    26    27    1
    17    27    28    1
    18    28    29    1
    19    29    30    1
    20    22    23    1
    21    23    24    1
    22     5     6   ar
    23     6     7   ar
    24     7     8   ar
    25     8     9   ar
    26    14    15   ar
    27    15    16   ar
    28    16    11   ar
    29     9     1   ar
    30     7     3   ar
    31    24    19    1
    32    30    25    1
    33    10    17    1
    34    10    18    1
@<TRIPOS>MOLECULE
*****
 30 34 0 0 0
SMALL
GASTEIGER

@<TRIPOS>ATOM
      1 C         140.9758  139.8061  165.4999 C.ar    1  UNL1        0.0834
      2 C         142.1253  140.5084  164.8400 C.ar    1  UNL1        0.0273
      3 C         142.2736  140.4656  163.3480 C.ar    1  UNL1        0.0528
      4 S         143.2956  141.0580  162.4236 S.2     1  UNL1       -0.0514
      5 C         142.9261  140.6789  161.0201 C.ar    1  UNL1        0.1631
      6 N         141.6757  139.8523  161.0772 N.ar    1  UNL1       -0.2225
      7 C         141.2725  139.7204  162.5159 C.ar    1  UNL1        0.1084
      8 C         140.1230  139.0180  163.1758 C.ar    1  UNL1        0.1184
      9 N         139.9747  139.0609  164.6678 N.ar    1  UNL1       -0.2422
     10 N         140.3823  139.9773  171.4681 N.pl3   1  UNL1       -0.3426
     11 C         140.5307  139.9345  169.9761 C.ar    1  UNL1        0.1254
     12 C         141.8970  139.8794  169.3595 C.ar    1  UNL1        0.0339
     13 C         142.0454  139.8366  167.8674 C.ar    1  UNL1        0.0059
     14 C         140.8275  139.8489  166.9920 C.ar    1  UNL1        0.0369
     15 C         139.4611  139.9040  167.6085 C.ar    1  UNL1        0.1017
     16 N         139.3127  139.9468  169.1005 N.ar    1  UNL1       -0.2296
     17 H         141.1816  139.9693  172.0427 H       1  UNL1        0.1437
     18 H         139.4855  140.0135  171.8727 H       1  UNL1        0.1437
     19 N         143.6754  141.0597  159.7777 N.pl3   1  UNL1       -0.2881
     20 C         143.6858  140.1365  158.5955 C.3     1  UNL1        0.0940
     21 C         144.4350  140.5173  157.3531 C.3     1  UNL1        0.0375
     22 C         145.1739  141.8212  157.2928 C.3     1  UNL1        0.0609
     23 C         145.1635  142.7444  158.4750 C.3     1  UNL1        0.0375
     24 C         144.4143  142.3637  159.7174 C.3     1  UNL1        0.0940
     25 N         145.9232  142.2020  156.0504 N.3     1  UNL1       -0.2738
     26 C         147.4098  142.0138  155.9838 C.3     1  UNL1        0.0720
     27 C         148.1591  142.3946  154.7414 C.3     1  UNL1        0.0174
     28 C         147.4218  142.9636  153.5656 C.3     1  UNL1        0.0029
     29 C         145.9352  143.1518  153.6322 C.3     1  UNL1        0.0174
     30 C         145.1859  142.7710  154.8746 C.3     1  UNL1        0.0720
@<TRIPOS>BOND
     1    10    11    1
     2    11    12   ar
     3    12    13   ar
     4    13    14   ar
     5    14     1    1
     6     1     2   ar
     7     2     3   ar
     8     3     4   ar
     9     4     5   ar
    10     5    19    1
    11    19    20    1
    12    20    21    1
    13    21    22    1
    14    22    25    1
    15    25    26    1
    16    26    27    1
    17    27    28    1
    18    28    29    1
    19    29    30    1
    20    22    23    1
    21    23    24    1
    22     5     6   ar
    23     6     7   ar
    24     7     8   ar
    25     8     9   ar
    26    14    15   ar
    27    15    16   ar
    28    16    11   ar
    29     9     1   ar
    30     7     3   ar
    31    24    19    1
    32    30    25    1
    33    10    17    1
    34    10    18    1
@<TRIPOS>MOLECULE
*****
 30 34 0 0 0
SMALL
GASTEIGER

@<TRIPOS>ATOM
      1 C         140.5506  141.3241  166.8684 C.ar    1  UNL1        0.0834
      2 C         140.9953  141.5665  165.4566 C.ar    1  UNL1        0.0273
      3 C         140.2750  140.9051  164.3193 C.ar    1  UNL1        0.0528
      4 S         140.4836  140.9543  162.8347 S.2     1  UNL1       -0.0514
      5 C         139.4475  140.0809  162.1917 C.ar    1  UNL1        0.1631
      6 N         138.5984  139.4918  163.2789 N.ar    1  UNL1       -0.2225
      7 C         139.1098  140.0012  164.5938 C.ar    1  UNL1        0.1084
      8 C         138.6650  139.7587  166.0057 C.ar    1  UNL1        0.1184
      9 N         139.3854  140.4201  167.1430 N.ar    1  UNL1       -0.2422
     10 N         143.4319  143.9698  171.4179 N.pl3   1  UNL1       -0.3426
     11 C         142.7116  143.3084  170.2806 C.ar    1  UNL1        0.1254
     12 C         143.4631  142.4250  169.3293 C.ar    1  UNL1        0.0339
     13 C         142.7427  141.7635  168.1919 C.ar    1  UNL1        0.0059
     14 C         141.2709  141.9855  168.0058 C.ar    1  UNL1        0.0369
     15 C         140.5195  142.8689  168.9571 C.ar    1  UNL1        0.1017
     16 N         141.2398  143.5304  170.0945 N.ar    1  UNL1       -0.2296
     17 H         144.3979  143.8242  171.5401 H       1  UNL1        0.1437
     18 H         142.9387  144.5497  172.0423 H       1  UNL1        0.1437
     19 N         139.2884  139.8390  160.7199 N.pl3   1  UNL1       -0.2881
     20 C         138.4110  140.7399  159.9023 C.3     1  UNL1        0.0940
     21 C         138.2519  140.4980  158.4305 C.3     1  UNL1        0.0375
     22 C         138.9701  139.3552  157.7763 C.3     1  UNL1        0.0609
     23 C         139.8475  138.4543  158.5939 C.3     1  UNL1        0.0375
     24 C         140.0066  138.6962  160.0657 C.3     1  UNL1        0.0940
     25 N         138.8110  139.1133  156.3045 N.3     1  UNL1       -0.2738
     26 C         137.8965  139.9848  155.4958 C.3     1  UNL1        0.0720
     27 C         137.7374  139.7429  154.0240 C.3     1  UNL1        0.0174
     28 C         138.4928  138.6295  153.3610 C.3     1  UNL1        0.0029
     29 C         139.4073  137.7580  154.1697 C.3     1  UNL1        0.0174
     30 C         139.5664  137.9999  155.6415 C.3     1  UNL1        0.0720
@<TRIPOS>BOND
     1    10    11    1
     2    11    12   ar
     3    12    13   ar
     4    13    14   ar
     5    14     1    1
     6     1     2   ar
     7     2     3   ar
     8     3     4   ar
     9     4     5   ar
    10     5    19    1
    11    19    20    1
    12    20    21    1
    13    21    22    1
    14    22    25    1
    15    25    26    1
    16    26    27    1
    17    27    28    1
    18    28    29    1
    19    29    30    1
    20    22    23    1
    21    23    24    1
    22     5     6   ar
    23     6     7   ar
    24     7     8   ar
    25     8     9   ar
    26    14    15   ar
    27    15    16   ar
    28    16    11   ar
    29     9     1   ar
    30     7     3   ar
    31    24    19    1
    32    30    25    1
    33    10    17    1
    34    10    18    1
@<TRIPOS>MOLECULE
*****
 30 34 0 0 0
SMALL
GASTEIGER

@<TRIPOS>ATOM
      1 C         140.4616  141.6766  166.6822 C.ar    1  UNL1        0.0834
      2 C         140.6404  142.3695  165.3640 C.ar    1  UNL1        0.0273
      3 C         139.9179  141.8680  164.1490 C.ar    1  UNL1        0.0528
      4 S         139.8979  142.3423  162.7260 S.2     1  UNL1       -0.0514
      5 C         138.9842  141.4409  161.9498 C.ar    1  UNL1        0.1631
      6 N         138.4394  140.4096  162.8930 N.ar    1  UNL1       -0.2225
      7 C         139.0165  140.6735  164.2521 C.ar    1  UNL1        0.1084
      8 C         138.8376  139.9806  165.5704 C.ar    1  UNL1        0.1184
      9 N         139.5601  140.4821  166.7854 N.ar    1  UNL1       -0.2422
     10 N         143.3516  143.6826  171.5427 N.pl3   1  UNL1       -0.3426
     11 C         142.6291  143.1811  170.3276 C.ar    1  UNL1        0.1254
     12 C         143.3485  142.3260  169.3270 C.ar    1  UNL1        0.0339
     13 C         142.6259  141.8245  168.1118 C.ar    1  UNL1        0.0059
     14 C         141.1841  142.1781  167.8974 C.ar    1  UNL1        0.0369
     15 C         140.4648  143.0332  168.8980 C.ar    1  UNL1        0.1017
     16 N         141.1872  143.5347  170.1131 N.ar    1  UNL1       -0.2296
     17 H         144.2979  143.4505  171.6835 H       1  UNL1        0.1437
     18 H         142.8794  144.2439  172.1994 H       1  UNL1        0.1437
     19 N         138.6703  141.5514  160.4872 N.pl3   1  UNL1       -0.2881
     20 C         139.0688  142.7806  159.7254 C.3     1  UNL1        0.0940
     21 C         138.7549  142.8911  158.2627 C.3     1  UNL1        0.0375
     22 C         138.0425  141.7725  157.5619 C.3     1  UNL1        0.0609
     23 C         137.6441  140.5433  158.3237 C.3     1  UNL1        0.0375
     24 C         137.9580  140.4328  159.7863 C.3     1  UNL1        0.0940
     25 N         137.7287  141.8830  156.0993 N.3     1  UNL1       -0.2738
     26 C         136.9402  143.0520  155.5877 C.3     1  UNL1        0.0720
     27 C         136.6263  143.1625  154.1250 C.3     1  UNL1        0.0174
     28 C         137.1009  142.1041  153.1740 C.3     1  UNL1        0.0029
     29 C         137.8893  140.9351  153.6857 C.3     1  UNL1        0.0174
     30 C         138.2032  140.8246  155.1483 C.3     1  UNL1        0.0720
@<TRIPOS>BOND
     1    10    11    1
     2    11    12   ar
     3    12    13   ar
     4    13    14   ar
     5    14     1    1
     6     1     2   ar
     7     2     3   ar
     8     3     4   ar
     9     4     5   ar
    10     5    19    1
    11    19    20    1
    12    20    21    1
    13    21    22    1
    14    22    25    1
    15    25    26    1
    16    26    27    1
    17    27    28    1
    18    28    29    1
    19    29    30    1
    20    22    23    1
    21    23    24    1
    22     5     6   ar
    23     6     7   ar
    24     7     8   ar
    25     8     9   ar
    26    14    15   ar
    27    15    16   ar
    28    16    11   ar
    29     9     1   ar
    30     7     3   ar
    31    24    19    1
    32    30    25    1
    33    10    17    1
    34    10    18    1
