@<TRIPOS>MOLECULE
*****
 49 54 0 0 0
SMALL
GASTEIGER

@<TRIPOS>ATOM
      1 C         143.0557  139.1198  156.7378 C.ar    1  UNL1        0.0568
      2 C         143.0932  140.3828  155.9293 C.ar    1  UNL1        0.1236
      3 N         143.3397  141.5267  156.8678 N.ar    1  UNL1       -0.1610
      4 N         143.4545  140.9707  158.2562 N.ar    1  UNL1       -0.1989
      5 C         143.6962  141.6268  159.5832 C.ar    1  UNL1        0.1311
      6 N         143.8717  143.1144  159.6636 N.pl3   1  UNL1       -0.3425
      7 C         143.7624  140.7954  160.8300 C.ar    1  UNL1        0.0626
      8 C         143.5869  139.3078  160.7497 C.ar    1  UNL1        0.1327
      9 N         143.3452  138.6518  159.4225 N.ar    1  UNL1       -0.2119
     10 C         143.2790  139.4832  158.1758 C.ar    1  UNL1        0.1679
     11 H         143.8283  143.6601  158.8453 H       1  UNL1        0.1437
     12 H         144.0304  143.5450  160.5346 H       1  UNL1        0.1437
     13 C         142.3903  134.9694  155.1310 C.ar    1  UNL1        0.0536
     14 C         141.2344  135.7597  155.6689 C.ar    1  UNL1        0.0045
     15 C         141.4561  137.1432  156.2045 C.ar    1  UNL1        0.0003
     16 C         142.8339  137.7364  156.2022 C.ar    1  UNL1        0.0045
     17 C         143.9897  136.9461  155.6643 C.ar    1  UNL1        0.0003
     18 C         143.7680  135.5626  155.1286 C.ar    1  UNL1        0.0045
     19 C         143.7828  128.8132  157.8534 C.2     1  UNL1        0.4051
     20 O         143.5610  127.4298  157.3178 O.2     1  UNL1       -0.2262
     21 N         143.3792  130.0064  157.0389 N.am    1  UNL1       -0.2425
     22 C         143.6010  131.3899  157.5744 C.3     1  UNL1        0.1182
     23 C         143.1974  132.5831  156.7599 C.3     1  UNL1        0.1153
     24 N         142.5720  132.3928  155.4099 N.am    1  UNL1       -0.2726
     25 C         142.1684  133.5860  154.5954 C.2     1  UNL1        0.2491
     26 O         141.5430  133.3957  153.2453 O.2     1  UNL1       -0.2699
     27 C         142.3502  131.0094  154.8743 C.3     1  UNL1        0.1153
     28 C         142.7538  129.8161  155.6888 C.3     1  UNL1        0.1182
     29 C         144.0203  128.1081  160.3426 C.3     1  UNL1        0.2573
     30 O         144.4082  129.0035  159.2034 O.3     1  UNL1       -0.4304
     31 C         144.0042  141.4515  162.1571 C.ar    1  UNL1        0.0054
     32 C         142.8901  142.1819  162.8465 C.ar    1  UNL1        0.0002
     33 C         143.1318  142.8380  164.1737 C.ar    1  UNL1        0.0000
     34 C         144.4875  142.7637  164.8112 C.ar    1  UNL1        0.0000
     35 C         145.6016  142.0333  164.1216 C.ar    1  UNL1        0.0000
     36 C         145.3599  141.3772  162.7946 C.ar    1  UNL1        0.0002
     37 N         143.6532  138.4764  161.9964 N.pl3   1  UNL1       -0.3195
     38 H         144.4082  137.8606  162.1378 H       1  UNL1        0.1481
     39 C         142.5691  138.5832  163.0275 C.3     1  UNL1        0.0730
     40 C         142.8957  139.0562  164.4130 C.3     1  UNL1        0.0342
     41 C         141.8116  139.1630  165.4441 C.3     1  UNL1        0.0470
     42 C         141.1360  139.4290  166.7567 C.3     1  UNL1        0.0161
     43 C         142.9878  139.6216  166.2542 C.3     1  UNL1        0.0161
     44 N         140.4008  138.7967  165.0899 N.3     1  UNL1       -0.2764
     45 C         139.3167  138.9035  166.1210 C.3     1  UNL1        0.0895
     46 C         140.0742  138.3237  163.7044 C.3     1  UNL1        0.0470
     47 C         139.2745  137.8279  162.5361 C.3     1  UNL1        0.0161
     48 C         138.7124  138.2582  164.3298 C.3     1  UNL1        0.0161
     49 C         141.1583  138.2169  162.6733 C.3     1  UNL1        0.0342
@<TRIPOS>BOND
     1    29    30    1
     2    30    19    1
     3    19    20    2
     4    19    21   am
     5    21    22    1
     6    22    23    1
     7    23    24    1
     8    24    25   am
     9    25    26    2
    10    25    13    1
    11    13    14   ar
    12    14    15   ar
    13    15    16   ar
    14    16     1    1
    15     1     2   ar
    16     2     3   ar
    17     3     4   ar
    18     4     5   ar
    19     5     6    1
    20     5     7   ar
    21     7    31    1
    22    31    32   ar
    23    32    33   ar
    24    33    34   ar
    25    34    35   ar
    26    35    36   ar
    27     7     8   ar
    28     8    37    1
    29    37    39    1
    30    39    40    1
    31    40    41    1
    32    41    42    1
    33    41    43    1
    34    41    44    1
    35    44    45    1
    36    44    46    1
    37    46    47    1
    38    46    48    1
    39    46    49    1
    40     8     9   ar
    41     9    10   ar
    42    16    17   ar
    43    17    18   ar
    44    24    27    1
    45    27    28    1
    46    28    21    1
    47    18    13   ar
    48    10     1   ar
    49    10     4   ar
    50    36    31   ar
    51    49    39    1
    52     6    11    1
    53     6    12    1
    54    37    38    1
@<TRIPOS>MOLECULE
*****
 49 54 0 0 0
SMALL
GASTEIGER

@<TRIPOS>ATOM
      1 C         138.4028  139.8617  160.9542 C.ar    1  UNL1        0.0568
      2 C         137.2733  139.6182  159.9977 C.ar    1  UNL1        0.1236
      3 N         137.7719  139.8977  158.6109 N.ar    1  UNL1       -0.1610
      4 N         139.2096  140.3139  158.7103 N.ar    1  UNL1       -0.1989
      5 C         140.2140  140.7103  157.6692 C.ar    1  UNL1        0.1311
      6 N         139.8241  140.7326  156.2209 N.pl3   1  UNL1       -0.3425
      7 C         141.6084  141.0845  158.0764 C.ar    1  UNL1        0.0626
      8 C         141.9983  141.0622  159.5246 C.ar    1  UNL1        0.1327
      9 N         140.9938  140.6658  160.5658 N.ar    1  UNL1       -0.2119
     10 C         139.5995  140.2917  160.1586 C.ar    1  UNL1        0.1679
     11 H         138.9090  140.4870  155.9537 H       1  UNL1        0.1437
     12 H         140.4834  140.9928  155.5376 H       1  UNL1        0.1437
     13 C         138.2314  139.3857  165.4257 C.ar    1  UNL1        0.0536
     14 C         137.7477  140.6539  164.7874 C.ar    1  UNL1        0.0045
     15 C         137.8048  140.8127  163.2969 C.ar    1  UNL1        0.0003
     16 C         138.3457  139.7030  162.4447 C.ar    1  UNL1        0.0045
     17 C         138.8294  138.4348  163.0830 C.ar    1  UNL1        0.0003
     18 C         138.7723  138.2760  164.5736 C.ar    1  UNL1        0.0045
     19 C         142.0233  142.2321  170.4026 C.2     1  UNL1        0.4051
     20 O         141.9662  142.0734  171.8931 O.2     1  UNL1       -0.2262
     21 N         141.0611  141.4808  169.5310 N.am    1  UNL1       -0.2425
     22 C         141.1181  141.6394  168.0405 C.3     1  UNL1        0.1182
     23 C         140.1559  140.8882  167.1689 C.3     1  UNL1        0.1153
     24 N         139.1366  139.9783  167.7878 N.am    1  UNL1       -0.2726
     25 C         138.1743  139.2270  166.9162 C.2     1  UNL1        0.2491
     26 O         137.1549  138.3172  167.5351 O.2     1  UNL1       -0.2699
     27 C         139.0794  139.8196  169.2783 C.3     1  UNL1        0.1153
     28 C         140.0417  140.5709  170.1499 C.3     1  UNL1        0.1182
     29 C         144.5051  142.8503  169.9458 C.3     1  UNL1        0.2573
     30 O         143.0427  143.1419  169.7837 O.3     1  UNL1       -0.4304
     31 C         142.6129  141.4809  157.0352 C.ar    1  UNL1        0.0054
     32 C         142.6854  142.9039  156.5665 C.ar    1  UNL1        0.0002
     33 C         143.6898  143.3004  155.5254 C.ar    1  UNL1        0.0000
     34 C         144.6218  142.2738  154.9530 C.ar    1  UNL1        0.0000
     35 C         144.5492  140.8507  155.4218 C.ar    1  UNL1        0.0000
     36 C         143.5448  140.4543  156.4629 C.ar    1  UNL1        0.0002
     37 N         143.3927  141.4364  159.9318 N.pl3   1  UNL1       -0.3195
     38 H         144.1514  141.2247  159.3413 H       1  UNL1        0.1481
     39 C         143.6310  142.1330  161.2386 C.3     1  UNL1        0.0730
     40 C         144.5811  141.5453  162.2395 C.3     1  UNL1        0.0342
     41 C         144.8193  142.2420  163.5464 C.3     1  UNL1        0.0470
     42 C         145.3715  142.5269  164.9117 C.3     1  UNL1        0.0161
     43 C         145.7229  141.0565  163.7146 C.3     1  UNL1        0.0161
     44 N         144.1075  143.5263  163.8524 N.3     1  UNL1       -0.2764
     45 C         144.3458  144.2230  165.1592 C.3     1  UNL1        0.0895
     46 C         143.1574  144.1141  162.8515 C.3     1  UNL1        0.0470
     47 C         142.1710  145.0576  162.2294 C.3     1  UNL1        0.0161
     48 C         143.0531  145.1384  163.9422 C.3     1  UNL1        0.0161
     49 C         142.9191  143.4174  161.5446 C.3     1  UNL1        0.0342
@<TRIPOS>BOND
     1    29    30    1
     2    30    19    1
     3    19    20    2
     4    19    21   am
     5    21    22    1
     6    22    23    1
     7    23    24    1
     8    24    25   am
     9    25    26    2
    10    25    13    1
    11    13    14   ar
    12    14    15   ar
    13    15    16   ar
    14    16     1    1
    15     1     2   ar
    16     2     3   ar
    17     3     4   ar
    18     4     5   ar
    19     5     6    1
    20     5     7   ar
    21     7    31    1
    22    31    32   ar
    23    32    33   ar
    24    33    34   ar
    25    34    35   ar
    26    35    36   ar
    27     7     8   ar
    28     8    37    1
    29    37    39    1
    30    39    40    1
    31    40    41    1
    32    41    42    1
    33    41    43    1
    34    41    44    1
    35    44    45    1
    36    44    46    1
    37    46    47    1
    38    46    48    1
    39    46    49    1
    40     8     9   ar
    41     9    10   ar
    42    16    17   ar
    43    17    18   ar
    44    24    27    1
    45    27    28    1
    46    28    21    1
    47    18    13   ar
    48    10     1   ar
    49    10     4   ar
    50    36    31   ar
    51    49    39    1
    52     6    11    1
    53     6    12    1
    54    37    38    1
@<TRIPOS>MOLECULE
*****
 49 54 0 0 0
SMALL
GASTEIGER

@<TRIPOS>ATOM
      1 C         139.8947  138.6901  160.3338 C.ar    1  UNL1        0.0568
      2 C         139.1916  137.8159  159.3382 C.ar    1  UNL1        0.1236
      3 N         139.8374  138.0247  158.0005 N.ar    1  UNL1       -0.1610
      4 N         140.9397  139.0280  158.1695 N.ar    1  UNL1       -0.1989
      5 C         141.9156  139.6202  157.1965 C.ar    1  UNL1        0.1311
      6 N         141.8802  139.2090  155.7544 N.pl3   1  UNL1       -0.3425
      7 C         142.9271  140.6237  157.6657 C.ar    1  UNL1        0.0626
      8 C         142.9625  141.0350  159.1078 C.ar    1  UNL1        0.1327
      9 N         141.9864  140.4427  160.0807 N.ar    1  UNL1       -0.2119
     10 C         140.9751  139.4392  159.6116 C.ar    1  UNL1        0.1679
     11 H         141.2164  138.5504  155.4465 H       1  UNL1        0.1437
     12 H         142.5208  139.5977  155.1159 H       1  UNL1        0.1437
     13 C         138.9320  139.0095  164.7181 C.ar    1  UNL1        0.0536
     14 C         139.7729  137.8736  164.2157 C.ar    1  UNL1        0.0045
     15 C         140.0939  137.7671  162.7542 C.ar    1  UNL1        0.0003
     16 C         139.5738  138.7965  161.7953 C.ar    1  UNL1        0.0045
     17 C         138.7328  139.9325  162.2977 C.ar    1  UNL1        0.0003
     18 C         138.4119  140.0390  163.7591 C.ar    1  UNL1        0.0045
     19 C         142.2414  142.1957  169.8314 C.2     1  UNL1        0.4051
     20 O         141.9205  142.3021  171.2928 O.2     1  UNL1       -0.2262
     21 N         141.3338  141.4257  168.9185 N.am    1  UNL1       -0.2425
     22 C         141.6546  141.3193  167.4570 C.3     1  UNL1        0.1182
     23 C         140.7471  140.5493  166.5440 C.3     1  UNL1        0.1153
     24 N         139.5187  139.8859  167.0924 N.am    1  UNL1       -0.2726
     25 C         138.6111  139.1159  166.1795 C.2     1  UNL1        0.2491
     26 O         137.3827  138.4524  166.7279 O.2     1  UNL1       -0.2699
     27 C         139.1978  139.9923  168.5538 C.3     1  UNL1        0.1153
     28 C         140.1054  140.7623  169.4669 C.3     1  UNL1        0.1182
     29 C         144.7395  142.8640  170.0816 C.3     1  UNL1        0.2573
     30 O         143.4698  142.8592  169.2830 O.3     1  UNL1       -0.4304
     31 C         143.9031  141.2159  156.6927 C.ar    1  UNL1        0.0054
     32 C         143.5275  142.4331  155.9006 C.ar    1  UNL1        0.0002
     33 C         144.5035  143.0254  154.9276 C.ar    1  UNL1        0.0000
     34 C         145.8551  142.4004  154.7467 C.ar    1  UNL1        0.0000
     35 C         146.2307  141.1832  155.5389 C.ar    1  UNL1        0.0000
     36 C         145.2547  140.5910  156.5119 C.ar    1  UNL1        0.0002
     37 N         143.9739  142.0384  159.5769 N.pl3   1  UNL1       -0.3195
     38 H         144.6862  142.3408  158.9683 H       1  UNL1        0.1481
     39 C         143.9000  142.5811  160.9733 C.3     1  UNL1        0.0730
     40 C         142.9057  143.6526  161.3099 C.3     1  UNL1        0.0342
     41 C         142.8319  144.1954  162.7063 C.3     1  UNL1        0.0470
     42 C         142.3843  145.0214  163.8756 C.3     1  UNL1        0.0161
     43 C         141.7560  145.0110  162.0525 C.3     1  UNL1        0.0161
     44 N         143.7522  143.6666  163.7661 N.3     1  UNL1       -0.2764
     45 C         143.6783  144.2094  165.1625 C.3     1  UNL1        0.0895
     46 C         144.7465  142.5952  163.4296 C.3     1  UNL1        0.0470
     47 C         145.8480  141.5910  163.5983 C.3     1  UNL1        0.0161
     48 C         145.0552  142.7891  164.8846 C.3     1  UNL1        0.0161
     49 C         144.8204  142.0524  162.0332 C.3     1  UNL1        0.0342
@<TRIPOS>BOND
     1    29    30    1
     2    30    19    1
     3    19    20    2
     4    19    21   am
     5    21    22    1
     6    22    23    1
     7    23    24    1
     8    24    25   am
     9    25    26    2
    10    25    13    1
    11    13    14   ar
    12    14    15   ar
    13    15    16   ar
    14    16     1    1
    15     1     2   ar
    16     2     3   ar
    17     3     4   ar
    18     4     5   ar
    19     5     6    1
    20     5     7   ar
    21     7    31    1
    22    31    32   ar
    23    32    33   ar
    24    33    34   ar
    25    34    35   ar
    26    35    36   ar
    27     7     8   ar
    28     8    37    1
    29    37    39    1
    30    39    40    1
    31    40    41    1
    32    41    42    1
    33    41    43    1
    34    41    44    1
    35    44    45    1
    36    44    46    1
    37    46    47    1
    38    46    48    1
    39    46    49    1
    40     8     9   ar
    41     9    10   ar
    42    16    17   ar
    43    17    18   ar
    44    24    27    1
    45    27    28    1
    46    28    21    1
    47    18    13   ar
    48    10     1   ar
    49    10     4   ar
    50    36    31   ar
    51    49    39    1
    52     6    11    1
    53     6    12    1
    54    37    38    1
@<TRIPOS>MOLECULE
*****
 49 54 0 0 0
SMALL
GASTEIGER

@<TRIPOS>ATOM
      1 C         144.0149  142.2408  160.1431 C.ar    1  UNL1        0.0568
      2 C         144.8900  142.8038  159.0628 C.ar    1  UNL1        0.1236
      3 N         144.3996  142.2763  157.7471 N.ar    1  UNL1       -0.1610
      4 N         143.2213  141.3873  158.0142 N.ar    1  UNL1       -0.1989
      5 C         142.3342  140.5950  157.1003 C.ar    1  UNL1        0.1311
      6 N         142.5720  140.6169  155.6194 N.pl3   1  UNL1       -0.3425
      7 C         141.2093  139.7806  157.6673 C.ar    1  UNL1        0.0626
      8 C         140.9715  139.7587  159.1481 C.ar    1  UNL1        0.1327
      9 N         141.8587  140.5511  160.0620 N.ar    1  UNL1       -0.2119
     10 C         142.9835  141.3654  159.4950 C.ar    1  UNL1        0.1679
     11 H         143.3103  141.1514  155.2473 H       1  UNL1        0.1437
     12 H         141.9898  140.0969  155.0196 H       1  UNL1        0.1437
     13 C         144.4133  143.0381  164.5540 C.ar    1  UNL1        0.0536
     14 C         143.4886  143.8753  163.7210 C.ar    1  UNL1        0.0045
     15 C         143.3557  143.6096  162.2507 C.ar    1  UNL1        0.0003
     16 C         144.1476  142.5066  161.6134 C.ar    1  UNL1        0.0045
     17 C         145.0723  141.6693  162.4464 C.ar    1  UNL1        0.0003
     18 C         145.2052  141.9350  163.9167 C.ar    1  UNL1        0.0045
     19 C         140.8219  140.6410  169.9024 C.2     1  UNL1        0.4051
     20 O         140.9547  140.9068  171.3727 O.2     1  UNL1       -0.2262
     21 N         141.7530  141.3067  168.9330 N.am    1  UNL1       -0.2425
     22 C         141.6202  141.0410  167.4626 C.3     1  UNL1        0.1182
     23 C         142.5512  141.7067  166.4931 C.3     1  UNL1        0.1153
     24 N         143.6150  142.6381  166.9938 N.am    1  UNL1       -0.2726
     25 C         144.5461  143.3038  166.0243 C.2     1  UNL1        0.2491
     26 O         145.6099  144.2353  166.5250 O.2     1  UNL1       -0.2699
     27 C         143.7478  142.9039  168.4641 C.3     1  UNL1        0.1153
     28 C         142.8168  142.2381  169.4337 C.3     1  UNL1        0.1182
     29 C         138.3402  139.8731  169.8631 C.3     1  UNL1        0.2573
     30 O         139.7581  139.7096  169.4017 O.3     1  UNL1       -0.4304
     31 C         140.3222  138.9883  156.7534 C.ar    1  UNL1        0.0054
     32 C         139.1577  139.6505  156.0787 C.ar    1  UNL1        0.0002
     33 C         138.2705  138.8581  155.1648 C.ar    1  UNL1        0.0000
     34 C         138.5480  137.4036  154.9256 C.ar    1  UNL1        0.0000
     35 C         139.7126  136.7413  155.6003 C.ar    1  UNL1        0.0000
     36 C         140.5997  137.5337  156.5142 C.ar    1  UNL1        0.0002
     37 N         139.8466  138.9444  159.7151 N.pl3   1  UNL1       -0.3195
     38 H         139.2960  138.3847  159.1212 H       1  UNL1        0.1481
     39 C         139.5607  138.9827  161.1871 C.3     1  UNL1        0.0730
     40 C         138.6070  140.0001  161.7397 C.3     1  UNL1        0.0342
     41 C         138.3210  140.0384  163.2117 C.3     1  UNL1        0.0470
     42 C         137.7321  140.4687  164.5224 C.3     1  UNL1        0.0161
     43 C         137.4487  141.1668  162.7474 C.3     1  UNL1        0.0161
     44 N         138.9889  139.0594  164.1311 N.3     1  UNL1       -0.2764
     45 C         138.7030  139.0978  165.6031 C.3     1  UNL1        0.0895
     46 C         139.9427  138.0421  163.5786 C.3     1  UNL1        0.0470
     47 C         140.9144  136.9003  163.5317 C.3     1  UNL1        0.0161
     48 C         139.9943  137.6839  165.0343 C.3     1  UNL1        0.0161
     49 C         140.2286  138.0037  162.1066 C.3     1  UNL1        0.0342
@<TRIPOS>BOND
     1    29    30    1
     2    30    19    1
     3    19    20    2
     4    19    21   am
     5    21    22    1
     6    22    23    1
     7    23    24    1
     8    24    25   am
     9    25    26    2
    10    25    13    1
    11    13    14   ar
    12    14    15   ar
    13    15    16   ar
    14    16     1    1
    15     1     2   ar
    16     2     3   ar
    17     3     4   ar
    18     4     5   ar
    19     5     6    1
    20     5     7   ar
    21     7    31    1
    22    31    32   ar
    23    32    33   ar
    24    33    34   ar
    25    34    35   ar
    26    35    36   ar
    27     7     8   ar
    28     8    37    1
    29    37    39    1
    30    39    40    1
    31    40    41    1
    32    41    42    1
    33    41    43    1
    34    41    44    1
    35    44    45    1
    36    44    46    1
    37    46    47    1
    38    46    48    1
    39    46    49    1
    40     8     9   ar
    41     9    10   ar
    42    16    17   ar
    43    17    18   ar
    44    24    27    1
    45    27    28    1
    46    28    21    1
    47    18    13   ar
    48    10     1   ar
    49    10     4   ar
    50    36    31   ar
    51    49    39    1
    52     6    11    1
    53     6    12    1
    54    37    38    1
@<TRIPOS>MOLECULE
*****
 49 54 0 0 0
SMALL
GASTEIGER

@<TRIPOS>ATOM
      1 C         138.0982  140.1446  161.1608 C.ar    1  UNL1        0.0568
      2 C         137.1686  139.4812  160.1883 C.ar    1  UNL1        0.1236
      3 N         137.4869  139.9980  158.8166 N.ar    1  UNL1       -0.1610
      4 N         138.6133  140.9808  158.9414 N.ar    1  UNL1       -0.1989
      5 C         139.3437  141.8049  157.9229 C.ar    1  UNL1        0.1311
      6 N         138.9659  141.7143  156.4741 N.pl3   1  UNL1       -0.3425
      7 C         140.4519  142.7196  158.3532 C.ar    1  UNL1        0.0626
      8 C         140.8297  142.8102  159.8020 C.ar    1  UNL1        0.1327
      9 N         140.0992  141.9860  160.8205 N.ar    1  UNL1       -0.2119
     10 C         138.9910  141.0714  160.3902 C.ar    1  UNL1        0.1679
     11 H         138.2385  141.1139  156.1916 H       1  UNL1        0.1437
     12 H         139.4453  142.2552  155.8056 H       1  UNL1        0.1437
     13 C         138.1920  139.4723  165.6094 C.ar    1  UNL1        0.0536
     14 C         137.7482  140.7957  165.0600 C.ar    1  UNL1        0.0045
     15 C         137.7169  141.0198  163.5771 C.ar    1  UNL1        0.0003
     16 C         138.1294  139.9205  162.6437 C.ar    1  UNL1        0.0045
     17 C         138.5732  138.5972  163.1930 C.ar    1  UNL1        0.0003
     18 C         138.6045  138.3730  164.6759 C.ar    1  UNL1        0.0045
     19 C         142.1210  142.2780  170.5023 C.2     1  UNL1        0.4051
     20 O         142.1522  142.0539  171.9852 O.2     1  UNL1       -0.2262
     21 N         141.1465  141.5205  169.6499 N.am    1  UNL1       -0.2425
     22 C         141.1152  141.7445  168.1670 C.3     1  UNL1        0.1182
     23 C         140.1408  140.9871  167.3144 C.3     1  UNL1        0.1153
     24 N         139.1977  140.0057  167.9447 N.am    1  UNL1       -0.2726
     25 C         138.2233  139.2483  167.0922 C.2     1  UNL1        0.2491
     26 O         137.2802  138.2668  167.7225 O.2     1  UNL1       -0.2699
     27 C         139.2290  139.7817  169.4275 C.3     1  UNL1        0.1153
     28 C         140.2034  140.5391  170.2802 C.3     1  UNL1        0.1182
     29 C         144.5125  142.9068  169.7053 C.3     1  UNL1        0.2573
     30 O         143.0641  143.2594  169.8721 O.3     1  UNL1       -0.4304
     31 C         141.1823  143.5437  157.3347 C.ar    1  UNL1        0.0054
     32 C         142.3746  142.9744  156.6247 C.ar    1  UNL1        0.0002
     33 C         143.1051  143.7985  155.6061 C.ar    1  UNL1        0.0000
     34 C         142.6432  145.1919  155.2977 C.ar    1  UNL1        0.0000
     35 C         141.4509  145.7612  156.0079 C.ar    1  UNL1        0.0000
     36 C         140.7204  144.9371  157.0263 C.ar    1  UNL1        0.0002
     37 N         141.9379  143.7248  160.2324 N.pl3   1  UNL1       -0.3195
     38 H         142.0985  144.5660  159.7467 H       1  UNL1        0.1481
     39 C         142.8014  143.3579  161.4027 C.3     1  UNL1        0.0730
     40 C         142.9691  144.3194  162.5417 C.3     1  UNL1        0.0342
     41 C         143.8326  143.9525  163.7120 C.3     1  UNL1        0.0470
     42 C         144.5398  144.0599  165.0305 C.3     1  UNL1        0.0161
     43 C         143.3823  145.3182  164.1386 C.3     1  UNL1        0.0161
     44 N         144.5285  142.6241  163.7433 N.3     1  UNL1       -0.2764
     45 C         145.3921  142.2571  164.9136 C.3     1  UNL1        0.0895
     46 C         144.3609  141.6626  162.6043 C.3     1  UNL1        0.0470
     47 C         144.5113  140.4242  161.7712 C.3     1  UNL1        0.0161
     48 C         145.2767  140.8655  163.4852 C.3     1  UNL1        0.0161
     49 C         143.4973  142.0295  161.4340 C.3     1  UNL1        0.0342
@<TRIPOS>BOND
     1    29    30    1
     2    30    19    1
     3    19    20    2
     4    19    21   am
     5    21    22    1
     6    22    23    1
     7    23    24    1
     8    24    25   am
     9    25    26    2
    10    25    13    1
    11    13    14   ar
    12    14    15   ar
    13    15    16   ar
    14    16     1    1
    15     1     2   ar
    16     2     3   ar
    17     3     4   ar
    18     4     5   ar
    19     5     6    1
    20     5     7   ar
    21     7    31    1
    22    31    32   ar
    23    32    33   ar
    24    33    34   ar
    25    34    35   ar
    26    35    36   ar
    27     7     8   ar
    28     8    37    1
    29    37    39    1
    30    39    40    1
    31    40    41    1
    32    41    42    1
    33    41    43    1
    34    41    44    1
    35    44    45    1
    36    44    46    1
    37    46    47    1
    38    46    48    1
    39    46    49    1
    40     8     9   ar
    41     9    10   ar
    42    16    17   ar
    43    17    18   ar
    44    24    27    1
    45    27    28    1
    46    28    21    1
    47    18    13   ar
    48    10     1   ar
    49    10     4   ar
    50    36    31   ar
    51    49    39    1
    52     6    11    1
    53     6    12    1
    54    37    38    1
@<TRIPOS>MOLECULE
*****
 49 54 0 0 0
SMALL
GASTEIGER

@<TRIPOS>ATOM
      1 C         142.2320  138.4141  160.5973 C.ar    1  UNL1        0.0568
      2 C         142.9482  137.6245  159.5420 C.ar    1  UNL1        0.1236
      3 N         142.3512  137.9794  158.2125 N.ar    1  UNL1       -0.1610
      4 N         141.2661  138.9884  158.4461 N.ar    1  UNL1       -0.1989
      5 C         140.3356  139.6972  157.5071 C.ar    1  UNL1        0.1311
      6 N         140.4092  139.4286  156.0332 N.pl3   1  UNL1       -0.3425
      7 C         139.3313  140.6747  158.0421 C.ar    1  UNL1        0.0626
      8 C         139.2577  140.9433  159.5160 C.ar    1  UNL1        0.1327
      9 N         140.1883  140.2344  160.4550 N.ar    1  UNL1       -0.2119
     10 C         141.1924  139.2570  159.9200 C.ar    1  UNL1        0.1679
     11 H         141.0683  138.7870  155.6821 H       1  UNL1        0.1437
     12 H         139.7985  139.8938  155.4170 H       1  UNL1        0.1437
     13 C         143.0573  138.2780  165.0189 C.ar    1  UNL1        0.0536
     14 C         143.9916  139.0126  164.1038 C.ar    1  UNL1        0.0045
     15 C         143.7166  139.0580  162.6299 C.ar    1  UNL1        0.0003
     16 C         142.5072  138.3687  162.0711 C.ar    1  UNL1        0.0045
     17 C         141.5729  137.6341  162.9862 C.ar    1  UNL1        0.0003
     18 C         141.8479  137.5887  164.4601 C.ar    1  UNL1        0.0045
     19 C         140.8268  142.2863  170.1383 C.2     1  UNL1        0.4051
     20 O         141.1019  142.2409  171.6121 O.2     1  UNL1       -0.2262
     21 N         141.4532  141.2729  169.2269 N.am    1  UNL1       -0.2425
     22 C         141.1782  141.3182  167.7530 C.3     1  UNL1        0.1182
     23 C         141.8045  140.3048  166.8416 C.3     1  UNL1        0.1153
     24 N         142.7060  139.2460  167.4041 N.am    1  UNL1       -0.2726
     25 C         143.3324  138.2326  166.4928 C.2     1  UNL1        0.2491
     26 O         144.2339  137.1739  167.0552 O.2     1  UNL1       -0.2699
     27 C         142.9811  139.2007  168.8780 C.3     1  UNL1        0.1153
     28 C         142.3547  140.2141  169.7894 C.3     1  UNL1        0.1182
     29 C         140.0319  144.7587  170.0659 C.3     1  UNL1        0.2573
     30 O         139.9253  143.3450  169.5758 O.3     1  UNL1       -0.4304
     31 C         138.4008  141.3835  157.1031 C.ar    1  UNL1        0.0054
     32 C         138.8094  142.6875  156.4846 C.ar    1  UNL1        0.0002
     33 C         137.8788  143.3963  155.5455 C.ar    1  UNL1        0.0000
     34 C         136.5397  142.8012  155.2252 C.ar    1  UNL1        0.0000
     35 C         136.1312  141.4971  155.8438 C.ar    1  UNL1        0.0000
     36 C         137.0617  140.7883  156.7827 C.ar    1  UNL1        0.0002
     37 N         138.2535  141.9207  160.0509 N.pl3   1  UNL1       -0.3195
     38 H         137.3839  142.0284  159.6022 H       1  UNL1        0.1481
     39 C         138.5743  142.7342  161.2697 C.3     1  UNL1        0.0730
     40 C         139.4617  143.9381  161.1556 C.3     1  UNL1        0.0342
     41 C         139.7825  144.7516  162.3744 C.3     1  UNL1        0.0470
     42 C         140.3711  145.8309  163.2339 C.3     1  UNL1        0.0161
     43 C         140.5536  145.5168  161.3401 C.3     1  UNL1        0.0161
     44 N         139.2158  144.3612  163.7072 N.3     1  UNL1       -0.2764
     45 C         139.5366  145.1747  164.9259 C.3     1  UNL1        0.0895
     46 C         138.3284  143.1573  163.8213 C.3     1  UNL1        0.0470
     47 C         137.4458  142.1095  164.4323 C.3     1  UNL1        0.0161
     48 C         138.3426  143.6068  165.2522 C.3     1  UNL1        0.0161
     49 C         138.0076  142.3438  162.6025 C.3     1  UNL1        0.0342
@<TRIPOS>BOND
     1    29    30    1
     2    30    19    1
     3    19    20    2
     4    19    21   am
     5    21    22    1
     6    22    23    1
     7    23    24    1
     8    24    25   am
     9    25    26    2
    10    25    13    1
    11    13    14   ar
    12    14    15   ar
    13    15    16   ar
    14    16     1    1
    15     1     2   ar
    16     2     3   ar
    17     3     4   ar
    18     4     5   ar
    19     5     6    1
    20     5     7   ar
    21     7    31    1
    22    31    32   ar
    23    32    33   ar
    24    33    34   ar
    25    34    35   ar
    26    35    36   ar
    27     7     8   ar
    28     8    37    1
    29    37    39    1
    30    39    40    1
    31    40    41    1
    32    41    42    1
    33    41    43    1
    34    41    44    1
    35    44    45    1
    36    44    46    1
    37    46    47    1
    38    46    48    1
    39    46    49    1
    40     8     9   ar
    41     9    10   ar
    42    16    17   ar
    43    17    18   ar
    44    24    27    1
    45    27    28    1
    46    28    21    1
    47    18    13   ar
    48    10     1   ar
    49    10     4   ar
    50    36    31   ar
    51    49    39    1
    52     6    11    1
    53     6    12    1
    54    37    38    1
@<TRIPOS>MOLECULE
*****
 49 54 0 0 0
SMALL
GASTEIGER

@<TRIPOS>ATOM
      1 C         140.3992  141.4801  156.8161 C.ar    1  UNL1        0.0568
      2 C         140.6726  142.8059  156.1699 C.ar    1  UNL1        0.1236
      3 N         140.5222  143.8709  157.2154 N.ar    1  UNL1       -0.1610
      4 N         140.1558  143.2034  158.5077 N.ar    1  UNL1       -0.1989
      5 C         139.8816  143.7502  159.8773 C.ar    1  UNL1        0.1311
      6 N         139.9576  145.2278  160.1241 N.pl3   1  UNL1       -0.3425
      7 C         139.5313  142.8193  161.0002 C.ar    1  UNL1        0.0626
      8 C         139.4553  141.3417  160.7535 C.ar    1  UNL1        0.1327
      9 N         139.7295  140.7949  159.3838 N.ar    1  UNL1       -0.2119
     10 C         140.0798  141.7258  158.2610 C.ar    1  UNL1        0.1679
     11 H         140.1875  145.8387  159.3871 H       1  UNL1        0.1437
     12 H         139.7776  145.5866  161.0230 H       1  UNL1        0.1437
     13 C         140.5165  137.4698  154.7780 C.ar    1  UNL1        0.0536
     14 C         139.3540  137.8323  155.6538 C.ar    1  UNL1        0.0045
     15 C         139.3148  139.1691  156.3332 C.ar    1  UNL1        0.0003
     16 C         140.4382  140.1434  156.1367 C.ar    1  UNL1        0.0045
     17 C         141.6008  139.7809  155.2609 C.ar    1  UNL1        0.0003
     18 C         141.6400  138.4441  154.5815 C.ar    1  UNL1        0.0045
     19 C         143.4894  131.5595  156.6433 C.2     1  UNL1        0.4051
     20 O         143.5285  130.2227  155.9639 O.2     1  UNL1       -0.2262
     21 N         142.7560  132.7028  156.0071 N.am    1  UNL1       -0.2425
     22 C         142.7168  134.0397  156.6864 C.3     1  UNL1        0.1182
     23 C         141.9834  135.1831  156.0503 C.3     1  UNL1        0.1153
     24 N         141.2891  134.9897  154.7348 N.am    1  UNL1       -0.2726
     25 C         140.5556  136.1330  154.0986 C.2     1  UNL1        0.2491
     26 O         139.8613  135.9397  152.7831 O.2     1  UNL1       -0.2699
     27 C         141.3282  133.6529  154.0554 C.3     1  UNL1        0.1153
     28 C         142.0616  132.5095  154.6916 C.3     1  UNL1        0.1182
     29 C         145.5906  132.2720  157.9951 C.3     1  UNL1        0.2573
     30 O         144.1838  131.7528  157.9588 O.3     1  UNL1       -0.4304
     31 C         139.2571  143.3660  162.3698 C.ar    1  UNL1        0.0054
     32 C         137.8433  143.5194  162.8469 C.ar    1  UNL1        0.0002
     33 C         137.5691  144.0662  164.2166 C.ar    1  UNL1        0.0000
     34 C         138.7086  144.4595  165.1091 C.ar    1  UNL1        0.0000
     35 C         140.1225  144.3062  164.6319 C.ar    1  UNL1        0.0000
     36 C         140.3967  143.7594  163.2624 C.ar    1  UNL1        0.0002
     37 N         139.1051  140.4108  161.8763 N.pl3   1  UNL1       -0.3195
     38 H         138.2256  139.9686  161.8930 H       1  UNL1        0.1481
     39 C         140.0947  140.1537  162.9737 C.3     1  UNL1        0.0730
     40 C         141.4873  139.7084  162.6387 C.3     1  UNL1        0.0342
     41 C         142.4770  139.4512  163.7361 C.3     1  UNL1        0.0470
     42 C         143.7616  139.0845  164.4182 C.3     1  UNL1        0.0161
     43 C         143.3261  139.1358  162.5405 C.3     1  UNL1        0.0161
     44 N         142.0741  139.6393  165.1686 N.3     1  UNL1       -0.2764
     45 C         143.0638  139.3822  166.2661 C.3     1  UNL1        0.0895
     46 C         140.6815  140.0846  165.5037 C.3     1  UNL1        0.0470
     47 C         139.4886  140.4894  166.3183 C.3     1  UNL1        0.0161
     48 C         141.2568  139.9680  166.8841 C.3     1  UNL1        0.0161
     49 C         139.6918  140.3418  164.4063 C.3     1  UNL1        0.0342
@<TRIPOS>BOND
     1    29    30    1
     2    30    19    1
     3    19    20    2
     4    19    21   am
     5    21    22    1
     6    22    23    1
     7    23    24    1
     8    24    25   am
     9    25    26    2
    10    25    13    1
    11    13    14   ar
    12    14    15   ar
    13    15    16   ar
    14    16     1    1
    15     1     2   ar
    16     2     3   ar
    17     3     4   ar
    18     4     5   ar
    19     5     6    1
    20     5     7   ar
    21     7    31    1
    22    31    32   ar
    23    32    33   ar
    24    33    34   ar
    25    34    35   ar
    26    35    36   ar
    27     7     8   ar
    28     8    37    1
    29    37    39    1
    30    39    40    1
    31    40    41    1
    32    41    42    1
    33    41    43    1
    34    41    44    1
    35    44    45    1
    36    44    46    1
    37    46    47    1
    38    46    48    1
    39    46    49    1
    40     8     9   ar
    41     9    10   ar
    42    16    17   ar
    43    17    18   ar
    44    24    27    1
    45    27    28    1
    46    28    21    1
    47    18    13   ar
    48    10     1   ar
    49    10     4   ar
    50    36    31   ar
    51    49    39    1
    52     6    11    1
    53     6    12    1
    54    37    38    1
@<TRIPOS>MOLECULE
*****
 49 54 0 0 0
SMALL
GASTEIGER

@<TRIPOS>ATOM
      1 C         142.5910  138.3808  160.7059 C.ar    1  UNL1        0.0568
      2 C         142.9877  137.3077  159.7358 C.ar    1  UNL1        0.1236
      3 N         142.5904  137.7561  158.3607 N.ar    1  UNL1       -0.1610
      4 N         141.9483  139.1064  158.4808 N.ar    1  UNL1       -0.1989
      5 C         141.3634  140.0343  157.4577 C.ar    1  UNL1        0.1311
      6 N         141.3630  139.6482  156.0082 N.pl3   1  UNL1       -0.3425
      7 C         140.7787  141.3483  157.8840 C.ar    1  UNL1        0.0626
      8 C         140.7791  141.7343  159.3335 C.ar    1  UNL1        0.1327
      9 N         141.3641  140.8064  160.3566 N.ar    1  UNL1       -0.2119
     10 C         141.9487  139.4925  159.9303 C.ar    1  UNL1        0.1679
     11 H         141.7467  138.7858  155.7284 H       1  UNL1        0.1437
     12 H         140.9791  140.2572  155.3367 H       1  UNL1        0.1437
     13 C         143.2181  138.2825  165.1610 C.ar    1  UNL1        0.0536
     14 C         142.0126  137.6240  164.5585 C.ar    1  UNL1        0.0045
     15 C         141.8035  137.6567  163.0735 C.ar    1  UNL1        0.0003
     16 C         142.8000  138.3480  162.1909 C.ar    1  UNL1        0.0045
     17 C         144.0055  139.0066  162.7934 C.ar    1  UNL1        0.0003
     18 C         144.2146  138.9739  164.2784 C.ar    1  UNL1        0.0045
     19 C         140.8344  142.3878  170.1323 C.2     1  UNL1        0.4051
     20 O         141.0434  142.3551  171.6173 O.2     1  UNL1       -0.2262
     21 N         141.4826  141.3533  169.2608 N.am    1  UNL1       -0.2425
     22 C         141.2737  141.3860  167.7757 C.3     1  UNL1        0.1182
     23 C         141.9218  140.3515  166.9041 C.3     1  UNL1        0.1153
     24 N         142.7789  139.2843  167.5175 N.am    1  UNL1       -0.2726
     25 C         143.4271  138.2498  166.6460 C.2     1  UNL1        0.2491
     26 O         144.2842  137.1825  167.2594 O.2     1  UNL1       -0.2699
     27 C         142.9879  139.2515  169.0025 C.3     1  UNL1        0.1153
     28 C         142.3397  140.2861  169.8742 C.3     1  UNL1        0.1182
     29 C         139.9668  144.8365  170.1033 C.3     1  UNL1        0.2573
     30 O         139.9773  143.4551  169.5189 O.3     1  UNL1       -0.4304
     31 C         140.1938  142.2761  156.8609 C.ar    1  UNL1        0.0054
     32 C         141.0621  143.3027  156.1959 C.ar    1  UNL1        0.0002
     33 C         140.4771  144.2306  155.1727 C.ar    1  UNL1        0.0000
     34 C         139.0239  144.1319  154.8145 C.ar    1  UNL1        0.0000
     35 C         138.1555  143.1053  155.4796 C.ar    1  UNL1        0.0000
     36 C         138.7405  142.1775  156.5027 C.ar    1  UNL1        0.0002
     37 N         140.1945  143.0483  159.7598 N.pl3   1  UNL1       -0.3195
     38 H         140.0465  143.7598  159.0957 H       1  UNL1        0.1481
     39 C         139.8354  143.2781  161.1979 C.3     1  UNL1        0.0730
     40 C         138.6832  142.5385  161.8107 C.3     1  UNL1        0.0342
     41 C         138.3241  142.7683  163.2488 C.3     1  UNL1        0.0470
     42 C         137.6025  142.6467  164.5582 C.3     1  UNL1        0.0161
     43 C         137.2805  141.7566  162.8782 C.3     1  UNL1        0.0161
     44 N         139.1171  143.7377  164.0742 N.3     1  UNL1       -0.2764
     45 C         138.7580  143.9675  165.5123 C.3     1  UNL1        0.0895
     46 C         140.2692  144.4773  163.4615 C.3     1  UNL1        0.0470
     47 C         141.4377  145.4092  163.3326 C.3     1  UNL1        0.0161
     48 C         140.3160  145.0308  164.8548 C.3     1  UNL1        0.0161
     49 C         140.6284  144.2475  162.0233 C.3     1  UNL1        0.0342
@<TRIPOS>BOND
     1    29    30    1
     2    30    19    1
     3    19    20    2
     4    19    21   am
     5    21    22    1
     6    22    23    1
     7    23    24    1
     8    24    25   am
     9    25    26    2
    10    25    13    1
    11    13    14   ar
    12    14    15   ar
    13    15    16   ar
    14    16     1    1
    15     1     2   ar
    16     2     3   ar
    17     3     4   ar
    18     4     5   ar
    19     5     6    1
    20     5     7   ar
    21     7    31    1
    22    31    32   ar
    23    32    33   ar
    24    33    34   ar
    25    34    35   ar
    26    35    36   ar
    27     7     8   ar
    28     8    37    1
    29    37    39    1
    30    39    40    1
    31    40    41    1
    32    41    42    1
    33    41    43    1
    34    41    44    1
    35    44    45    1
    36    44    46    1
    37    46    47    1
    38    46    48    1
    39    46    49    1
    40     8     9   ar
    41     9    10   ar
    42    16    17   ar
    43    17    18   ar
    44    24    27    1
    45    27    28    1
    46    28    21    1
    47    18    13   ar
    48    10     1   ar
    49    10     4   ar
    50    36    31   ar
    51    49    39    1
    52     6    11    1
    53     6    12    1
    54    37    38    1
@<TRIPOS>MOLECULE
*****
 49 54 0 0 0
SMALL
GASTEIGER

@<TRIPOS>ATOM
      1 C         140.3330  139.1845  157.3191 C.ar    1  UNL1        0.0568
      2 C         141.1562  138.0761  156.7327 C.ar    1  UNL1        0.1236
      3 N         142.3632  137.8850  157.6025 N.ar    1  UNL1       -0.1610
      4 N         142.2860  138.8753  158.7265 N.ar    1  UNL1       -0.1989
      5 C         143.1961  139.1495  159.8869 C.ar    1  UNL1        0.1311
      6 N         144.4509  138.3464  160.0620 N.pl3   1  UNL1       -0.3425
      7 C         142.8516  140.2269  160.8721 C.ar    1  UNL1        0.0626
      8 C         141.5969  141.0300  160.6969 C.ar    1  UNL1        0.1327
      9 N         140.6867  140.7557  159.5365 N.ar    1  UNL1       -0.2119
     10 C         141.0313  139.6784  158.5514 C.ar    1  UNL1        0.1679
     11 H         144.6770  137.6393  159.4154 H       1  UNL1        0.1437
     12 H         145.0482  138.5264  160.8236 H       1  UNL1        0.1437
     13 C         136.4503  140.7525  155.6709 C.ar    1  UNL1        0.0536
     14 C         137.0311  141.3494  156.9185 C.ar    1  UNL1        0.0045
     15 C         138.3253  140.8267  157.4679 C.ar    1  UNL1        0.0003
     16 C         139.0388  139.7071  156.7697 C.ar    1  UNL1        0.0045
     17 C         138.4581  139.1103  155.5222 C.ar    1  UNL1        0.0003
     18 C         137.1638  139.6329  154.9727 C.ar    1  UNL1        0.0045
     19 C         129.9516  139.5806  157.5795 C.2     1  UNL1        0.4051
     20 O         128.6574  140.1033  157.0301 O.2     1  UNL1       -0.2262
     21 N         131.2527  140.0043  156.9650 N.am    1  UNL1       -0.2425
     22 C         132.5470  139.4816  157.5143 C.3     1  UNL1        0.1182
     23 C         133.8481  139.9052  156.8999 C.3     1  UNL1        0.1153
     24 N         133.8550  140.8515  155.7361 N.am    1  UNL1       -0.2726
     25 C         135.1561  141.2752  155.1216 C.2     1  UNL1        0.2491
     26 O         135.1630  142.2215  153.9578 O.2     1  UNL1       -0.2699
     27 C         132.5608  141.3742  155.1867 C.3     1  UNL1        0.1153
     28 C         131.2596  140.9506  155.8012 C.3     1  UNL1        0.1182
     29 C         129.0447  137.4344  158.7289 C.3     1  UNL1        0.2573
     30 O         129.9447  138.6343  158.7433 O.3     1  UNL1       -0.4304
     31 C         143.7617  140.5011  162.0324 C.ar    1  UNL1        0.0054
     32 C         144.6509  141.7090  162.0190 C.ar    1  UNL1        0.0002
     33 C         145.5611  141.9833  163.1794 C.ar    1  UNL1        0.0000
     34 C         145.5820  141.0496  164.3532 C.ar    1  UNL1        0.0000
     35 C         144.6928  139.8416  164.3665 C.ar    1  UNL1        0.0000
     36 C         143.7827  139.5674  163.2062 C.ar    1  UNL1        0.0002
     37 N         141.2523  142.1073  161.6821 N.pl3   1  UNL1       -0.3195
     38 H         141.2800  143.0524  161.4078 H       1  UNL1        0.1481
     39 C         140.8654  141.7447  163.0853 C.3     1  UNL1        0.0730
     40 C         141.6884  142.2334  164.2402 C.3     1  UNL1        0.0342
     41 C         141.3016  141.8708  165.6434 C.3     1  UNL1        0.0470
     42 C         141.3396  141.7947  167.1409 C.3     1  UNL1        0.0161
     43 C         142.5246  142.6956  165.9152 C.3     1  UNL1        0.0161
     44 N         140.0918  141.0195  165.8916 N.3     1  UNL1       -0.2764
     45 C         139.7050  140.6569  167.2948 C.3     1  UNL1        0.0895
     46 C         139.2688  140.5308  164.7367 C.3     1  UNL1        0.0470
     47 C         138.1801  139.8319  163.9775 C.3     1  UNL1        0.0161
     48 C         138.5039  139.9255  165.8762 C.3     1  UNL1        0.0161
     49 C         139.6557  140.8934  163.3335 C.3     1  UNL1        0.0342
@<TRIPOS>BOND
     1    29    30    1
     2    30    19    1
     3    19    20    2
     4    19    21   am
     5    21    22    1
     6    22    23    1
     7    23    24    1
     8    24    25   am
     9    25    26    2
    10    25    13    1
    11    13    14   ar
    12    14    15   ar
    13    15    16   ar
    14    16     1    1
    15     1     2   ar
    16     2     3   ar
    17     3     4   ar
    18     4     5   ar
    19     5     6    1
    20     5     7   ar
    21     7    31    1
    22    31    32   ar
    23    32    33   ar
    24    33    34   ar
    25    34    35   ar
    26    35    36   ar
    27     7     8   ar
    28     8    37    1
    29    37    39    1
    30    39    40    1
    31    40    41    1
    32    41    42    1
    33    41    43    1
    34    41    44    1
    35    44    45    1
    36    44    46    1
    37    46    47    1
    38    46    48    1
    39    46    49    1
    40     8     9   ar
    41     9    10   ar
    42    16    17   ar
    43    17    18   ar
    44    24    27    1
    45    27    28    1
    46    28    21    1
    47    18    13   ar
    48    10     1   ar
    49    10     4   ar
    50    36    31   ar
    51    49    39    1
    52     6    11    1
    53     6    12    1
    54    37    38    1
