@<TRIPOS>MOLECULE
*****
 27 30 0 0 0
SMALL
GASTEIGER

@<TRIPOS>ATOM
      1 C         138.8795  139.6243  164.5564 C.ar    1  UNL1        0.1060
      2 C         139.6154  140.6917  165.3108 C.ar    1  UNL1        0.0258
      3 C         139.6231  140.6802  166.8107 C.ar    1  UNL1        0.0608
      4 C         138.8949  139.6013  167.5563 C.ar    1  UNL1        0.2437
      5 N         138.1590  138.5340  166.8019 N.ar    1  UNL1       -0.1103
      6 N         138.1513  138.5455  165.3019 N.ar    1  UNL1       -0.1450
      7 O         136.7646  141.1555  163.0789 O.3     1  UNL1       -0.5054
      8 C         137.8143  140.4014  162.3177 C.ar    1  UNL1        0.1366
      9 C         137.8066  140.4129  160.8178 C.ar    1  UNL1        0.0558
     10 C         138.8564  139.6588  160.0566 C.ar    1  UNL1        0.0859
     11 C         139.9138  138.8932  160.7953 C.ar    1  UNL1        0.0194
     12 C         139.9215  138.8817  162.2952 C.ar    1  UNL1        0.0061
     13 C         138.8717  139.6358  163.0564 C.ar    1  UNL1        0.0532
     14 H         136.1041  141.6337  162.6174 H       1  UNL1        0.2922
     15 N         138.8486  139.6703  158.5566 N.ar    1  UNL1       -0.2280
     16 C         139.8285  138.9675  157.6644 C.ar    1  UNL1        0.1020
     17 C         139.4451  139.2495  156.2419 C.ar    1  UNL1        0.0431
     18 C         138.2283  140.1266  156.2549 C.ar    1  UNL1        0.1221
     19 N         137.8597  140.3867  157.6855 N.ar    1  UNL1       -0.1635
     20 O         138.9027  139.5899  169.0562 O.3     1  UNL1       -0.4629
     21 C         139.9962  140.2914  169.8059 C.3     1  UNL1        0.1704
     22 C         141.3233  139.6197  169.9993 C.3     1  UNL1        0.0607
     23 C         142.4168  140.3212  170.7491 C.3     1  UNL1        0.0723
     24 N         142.1832  141.6944  171.3054 N.3     1  UNL1       -0.2973
     25 C         140.8561  142.3661  171.1120 C.3     1  UNL1        0.0723
     26 C         139.7626  141.6646  170.3623 C.3     1  UNL1        0.0607
     27 H         142.8858  142.3047  170.8879 H       1  UNL1        0.1233
@<TRIPOS>BOND
     1     7     8    1
     2     8     9   ar
     3     9    10   ar
     4    10    15    1
     5    15    16   ar
     6    16    17   ar
     7    17    18   ar
     8    18    19   ar
     9    10    11   ar
    10    11    12   ar
    11    12    13   ar
    12    13     1    1
    13     1     2   ar
    14     2     3   ar
    15     3     4   ar
    16     4    20    1
    17    20    21    1
    18    21    22    1
    19    22    23    1
    20    23    24    1
    21    24    25    1
    22    25    26    1
    23     4     5   ar
    24     5     6   ar
    25    13     8   ar
    26     6     1   ar
    27    19    15   ar
    28    26    21    1
    29     7    14    1
    30    24    27    1
@<TRIPOS>MOLECULE
*****
 27 30 0 0 0
SMALL
GASTEIGER

@<TRIPOS>ATOM
      1 C         138.8990  139.7137  164.4858 C.ar    1  UNL1        0.1060
      2 C         138.1844  138.6323  165.2407 C.ar    1  UNL1        0.0258
      3 C         138.2300  138.6085  166.7398 C.ar    1  UNL1        0.0608
      4 C         138.9902  139.6660  167.4840 C.ar    1  UNL1        0.2437
      5 N         139.7048  140.7474  166.7291 N.ar    1  UNL1       -0.1103
      6 N         139.6592  140.7712  165.2299 N.ar    1  UNL1       -0.1450
      7 O         136.7153  141.2109  163.0751 O.3     1  UNL1       -0.5054
      8 C         137.7616  140.4861  162.2813 C.ar    1  UNL1        0.1366
      9 C         137.7160  140.5099  160.7822 C.ar    1  UNL1        0.0558
     10 C         138.7622  139.7852  159.9884 C.ar    1  UNL1        0.0859
     11 C         139.8541  139.0366  160.6937 C.ar    1  UNL1        0.0194
     12 C         139.8997  139.0128  162.1928 C.ar    1  UNL1        0.0061
     13 C         138.8534  139.7376  162.9866 C.ar    1  UNL1        0.0532
     14 H         136.0332  141.6785  162.6345 H       1  UNL1        0.2922
     15 N         138.7166  139.8090  158.4893 N.ar    1  UNL1       -0.2280
     16 C         138.0647  140.8626  157.6436 C.ar    1  UNL1        0.1020
     17 C         138.2601  140.4882  156.2043 C.ar    1  UNL1        0.0431
     18 C         139.0328  139.2032  156.1604 C.ar    1  UNL1        0.1221
     19 N         139.3149  138.7835  157.5726 N.ar    1  UNL1       -0.1635
     20 O         139.0358  139.6421  168.9831 O.3     1  UNL1       -0.4629
     21 C         140.1631  140.3136  169.7100 C.3     1  UNL1        0.1704
     22 C         140.0016  141.7183  170.2105 C.3     1  UNL1        0.0607
     23 C         141.1289  142.3898  170.9374 C.3     1  UNL1        0.0723
     24 N         142.4177  141.6565  171.1637 N.3     1  UNL1       -0.2973
     25 C         142.5792  140.2517  170.6632 C.3     1  UNL1        0.0723
     26 C         141.4519  139.5803  169.9364 C.3     1  UNL1        0.0607
     27 H         142.5675  141.6288  172.1723 H       1  UNL1        0.1233
@<TRIPOS>BOND
     1     7     8    1
     2     8     9   ar
     3     9    10   ar
     4    10    15    1
     5    15    16   ar
     6    16    17   ar
     7    17    18   ar
     8    18    19   ar
     9    10    11   ar
    10    11    12   ar
    11    12    13   ar
    12    13     1    1
    13     1     2   ar
    14     2     3   ar
    15     3     4   ar
    16     4    20    1
    17    20    21    1
    18    21    22    1
    19    22    23    1
    20    23    24    1
    21    24    25    1
    22    25    26    1
    23     4     5   ar
    24     5     6   ar
    25    13     8   ar
    26     6     1   ar
    27    19    15   ar
    28    26    21    1
    29     7    14    1
    30    24    27    1
@<TRIPOS>MOLECULE
*****
 27 30 0 0 0
SMALL
GASTEIGER

@<TRIPOS>ATOM
      1 C         142.8793  138.8078  164.5519 C.ar    1  UNL1        0.1060
      2 C         141.6989  139.4348  165.2328 C.ar    1  UNL1        0.0258
      3 C         141.6608  139.5324  166.7291 C.ar    1  UNL1        0.0608
      4 C         142.8031  139.0031  167.5446 C.ar    1  UNL1        0.2437
      5 N         143.9835  138.3761  166.8637 N.ar    1  UNL1       -0.1103
      6 N         144.0216  138.2785  165.3673 N.ar    1  UNL1       -0.1450
      7 O         145.1574  140.0260  163.0267 O.3     1  UNL1       -0.5054
      8 C         144.0564  139.3193  162.2929 C.ar    1  UNL1        0.1366
      9 C         144.0944  139.2217  160.7966 C.ar    1  UNL1        0.0558
     10 C         142.9934  138.5150  160.0629 C.ar    1  UNL1        0.0859
     11 C         141.8544  137.9060  160.8255 C.ar    1  UNL1        0.0194
     12 C         141.8163  138.0036  162.3218 C.ar    1  UNL1        0.0061
     13 C         142.9174  138.7103  163.0555 C.ar    1  UNL1        0.0532
     14 H         145.8690  140.4065  162.5503 H       1  UNL1        0.2922
     15 N         143.0315  138.4174  158.5665 N.ar    1  UNL1       -0.2280
     16 C         142.4822  137.2911  157.7422 C.ar    1  UNL1        0.1020
     17 C         142.7368  137.6066  156.2980 C.ar    1  UNL1        0.0431
     18 C         143.4434  138.9280  156.2298 C.ar    1  UNL1        0.1221
     19 N         143.6255  139.4291  157.6318 N.ar    1  UNL1       -0.1635
     20 O         142.7650  139.1007  169.0409 O.3     1  UNL1       -0.4629
     21 C         142.3867  140.3946  169.6987 C.3     1  UNL1        0.1704
     22 C         143.3124  141.5725  169.6243 C.3     1  UNL1        0.0607
     23 C         142.9342  142.8664  170.2821 C.3     1  UNL1        0.0723
     24 N         141.6303  142.9824  171.0143 N.3     1  UNL1       -0.2973
     25 C         140.7046  141.8045  171.0888 C.3     1  UNL1        0.0723
     26 C         141.0828  140.5106  170.4310 C.3     1  UNL1        0.0607
     27 H         141.1094  143.7386  170.5702 H       1  UNL1        0.1233
@<TRIPOS>BOND
     1     7     8    1
     2     8     9   ar
     3     9    10   ar
     4    10    15    1
     5    15    16   ar
     6    16    17   ar
     7    17    18   ar
     8    18    19   ar
     9    10    11   ar
    10    11    12   ar
    11    12    13   ar
    12    13     1    1
    13     1     2   ar
    14     2     3   ar
    15     3     4   ar
    16     4    20    1
    17    20    21    1
    18    21    22    1
    19    22    23    1
    20    23    24    1
    21    24    25    1
    22    25    26    1
    23     4     5   ar
    24     5     6   ar
    25    13     8   ar
    26     6     1   ar
    27    19    15   ar
    28    26    21    1
    29     7    14    1
    30    24    27    1
@<TRIPOS>MOLECULE
*****
 27 30 0 0 0
SMALL
GASTEIGER

@<TRIPOS>ATOM
      1 C         139.3006  141.1493  164.3490 C.ar    1  UNL1        0.1060
      2 C         140.1571  141.8202  165.3817 C.ar    1  UNL1        0.0258
      3 C         140.1826  141.2996  166.7882 C.ar    1  UNL1        0.0608
      4 C         139.3516  140.1081  167.1621 C.ar    1  UNL1        0.2437
      5 N         138.4951  139.4372  166.1294 N.ar    1  UNL1       -0.1103
      6 N         138.4697  139.9578  164.7229 N.ar    1  UNL1       -0.1450
      7 O         136.6954  141.3697  162.8780 O.3     1  UNL1       -0.5054
      8 C         137.9726  141.7801  162.2070 C.ar    1  UNL1        0.1366
      9 C         137.9472  142.3007  160.8005 C.ar    1  UNL1        0.0558
     10 C         139.2244  142.7112  160.1295 C.ar    1  UNL1        0.0859
     11 C         140.5270  142.6010  160.8650 C.ar    1  UNL1        0.0194
     12 C         140.5524  142.0804  162.2715 C.ar    1  UNL1        0.0061
     13 C         139.2752  141.6699  162.9425 C.ar    1  UNL1        0.0532
     14 H         135.8816  141.4385  162.4185 H       1  UNL1        0.2922
     15 N         139.1989  143.2318  158.7229 N.ar    1  UNL1       -0.2280
     16 C         140.0719  144.3187  158.1691 C.ar    1  UNL1        0.1020
     17 C         139.7085  144.5155  156.7272 C.ar    1  UNL1        0.0431
     18 C         138.6109  143.5503  156.3898 C.ar    1  UNL1        0.1221
     19 N         138.2960  142.7569  157.6232 N.ar    1  UNL1       -0.1635
     20 O         139.3771  139.5875  168.5686 O.3     1  UNL1       -0.4629
     21 C         140.3460  140.1573  169.5618 C.3     1  UNL1        0.1704
     22 C         141.6985  139.5319  169.7338 C.3     1  UNL1        0.0607
     23 C         142.6674  140.1018  170.7270 C.3     1  UNL1        0.0723
     24 N         142.2839  141.2969  171.5482 N.3     1  UNL1       -0.2973
     25 C         140.9314  141.9223  171.3762 C.3     1  UNL1        0.0723
     26 C         139.9625  141.3525  170.3830 C.3     1  UNL1        0.0607
     27 H         142.9717  142.0236  171.3498 H       1  UNL1        0.1233
@<TRIPOS>BOND
     1     7     8    1
     2     8     9   ar
     3     9    10   ar
     4    10    15    1
     5    15    16   ar
     6    16    17   ar
     7    17    18   ar
     8    18    19   ar
     9    10    11   ar
    10    11    12   ar
    11    12    13   ar
    12    13     1    1
    13     1     2   ar
    14     2     3   ar
    15     3     4   ar
    16     4    20    1
    17    20    21    1
    18    21    22    1
    19    22    23    1
    20    23    24    1
    21    24    25    1
    22    25    26    1
    23     4     5   ar
    24     5     6   ar
    25    13     8   ar
    26     6     1   ar
    27    19    15   ar
    28    26    21    1
    29     7    14    1
    30    24    27    1
@<TRIPOS>MOLECULE
*****
 27 30 0 0 0
SMALL
GASTEIGER

@<TRIPOS>ATOM
      1 C         138.7047  139.8699  164.5639 C.ar    1  UNL1        0.1060
      2 C         139.5915  140.7938  165.3448 C.ar    1  UNL1        0.0258
      3 C         139.6596  140.6831  166.8391 C.ar    1  UNL1        0.0608
      4 C         138.8409  139.6483  167.5526 C.ar    1  UNL1        0.2437
      5 N         137.9540  138.7243  166.7716 N.ar    1  UNL1       -0.1103
      6 N         137.8859  138.8352  165.2772 N.ar    1  UNL1       -0.1450
      7 O         138.6226  137.3898  162.8779 O.3     1  UNL1       -0.5054
      8 C         138.5955  138.7407  162.2265 C.ar    1  UNL1        0.1366
      9 C         138.5275  138.8516  160.7322 C.ar    1  UNL1        0.0558
     10 C         138.5004  140.2025  160.0808 C.ar    1  UNL1        0.0859
     11 C         138.5415  141.4425  160.9238 C.ar    1  UNL1        0.0194
     12 C         138.6096  141.3317  162.4181 C.ar    1  UNL1        0.0061
     13 C         138.6366  139.9807  163.0694 C.ar    1  UNL1        0.0532
     14 H         138.5969  136.6152  162.3513 H       1  UNL1        0.2922
     15 N         138.4324  140.3133  158.5864 N.ar    1  UNL1       -0.2280
     16 C         139.5947  140.2286  157.6422 C.ar    1  UNL1        0.1020
     17 C         139.0707  140.3913  156.2461 C.ar    1  UNL1        0.0431
     18 C         137.5843  140.5765  156.3276 C.ar    1  UNL1        0.1221
     19 N         137.1899  140.5283  157.7740 N.ar    1  UNL1       -0.1635
     20 O         138.9090  139.5375  169.0469 O.3     1  UNL1       -0.4629
     21 C         139.9844  140.2586  169.8042 C.3     1  UNL1        0.1704
     22 C         141.3186  139.6066  170.0159 C.3     1  UNL1        0.0607
     23 C         142.3940  140.3277  170.7732 C.3     1  UNL1        0.0723
     24 N         142.1352  141.7008  171.3188 N.3     1  UNL1       -0.2973
     25 C         140.8010  142.3527  171.1071 C.3     1  UNL1        0.0723
     26 C         139.7256  141.6316  170.3498 C.3     1  UNL1        0.0607
     27 H         142.8337  142.3184  170.9052 H       1  UNL1        0.1233
@<TRIPOS>BOND
     1     7     8    1
     2     8     9   ar
     3     9    10   ar
     4    10    15    1
     5    15    16   ar
     6    16    17   ar
     7    17    18   ar
     8    18    19   ar
     9    10    11   ar
    10    11    12   ar
    11    12    13   ar
    12    13     1    1
    13     1     2   ar
    14     2     3   ar
    15     3     4   ar
    16     4    20    1
    17    20    21    1
    18    21    22    1
    19    22    23    1
    20    23    24    1
    21    24    25    1
    22    25    26    1
    23     4     5   ar
    24     5     6   ar
    25    13     8   ar
    26     6     1   ar
    27    19    15   ar
    28    26    21    1
    29     7    14    1
    30    24    27    1
@<TRIPOS>MOLECULE
*****
 27 30 0 0 0
SMALL
GASTEIGER

@<TRIPOS>ATOM
      1 C         139.6121  139.1580  164.5760 C.ar    1  UNL1        0.1060
      2 C         138.3598  138.6329  165.2131 C.ar    1  UNL1        0.0258
      3 C         138.1277  138.8266  166.6823 C.ar    1  UNL1        0.0608
      4 C         139.1481  139.5453  167.5145 C.ar    1  UNL1        0.2437
      5 N         140.4005  140.0703  166.8773 N.ar    1  UNL1       -0.1103
      6 N         140.6325  139.8766  165.4081 N.ar    1  UNL1       -0.1450
      7 O         142.2829  138.2106  163.5911 O.3     1  UNL1       -0.5054
      8 C         141.1795  138.4906  162.6143 C.ar    1  UNL1        0.1366
      9 C         141.4114  138.2970  161.1451 C.ar    1  UNL1        0.0558
     10 C         140.3081  138.5769  160.1683 C.ar    1  UNL1        0.0859
     11 C         138.9727  139.0506  160.6607 C.ar    1  UNL1        0.0194
     12 C         138.7408  139.2442  162.1299 C.ar    1  UNL1        0.0061
     13 C         139.8442  138.9643  163.1067 C.ar    1  UNL1        0.0532
     14 H         143.1170  137.9148  163.2835 H       1  UNL1        0.2922
     15 N         140.5401  138.3832  158.6990 N.ar    1  UNL1       -0.2280
     16 C         141.8753  138.2842  158.0227 C.ar    1  UNL1        0.1020
     17 C         141.6380  138.0943  156.5538 C.ar    1  UNL1        0.0431
     18 C         140.1561  138.0760  156.3222 C.ar    1  UNL1        0.1221
     19 N         139.4775  138.2546  157.6480 N.ar    1  UNL1       -0.1635
     20 O         138.9160  139.7390  168.9837 O.3     1  UNL1       -0.4629
     21 C         139.9120  140.5016  169.8062 C.3     1  UNL1        0.1704
     22 C         141.1701  139.8309  170.2724 C.3     1  UNL1        0.0607
     23 C         142.1660  140.5935  171.0949 C.3     1  UNL1        0.0723
     24 N         141.9039  142.0268  171.4512 N.3     1  UNL1       -0.2973
     25 C         140.6458  142.6974  170.9850 C.3     1  UNL1        0.0723
     26 C         139.6499  141.9348  170.1625 C.3     1  UNL1        0.0607
     27 H         142.6827  142.5700  171.0785 H       1  UNL1        0.1233
@<TRIPOS>BOND
     1     7     8    1
     2     8     9   ar
     3     9    10   ar
     4    10    15    1
     5    15    16   ar
     6    16    17   ar
     7    17    18   ar
     8    18    19   ar
     9    10    11   ar
    10    11    12   ar
    11    12    13   ar
    12    13     1    1
    13     1     2   ar
    14     2     3   ar
    15     3     4   ar
    16     4    20    1
    17    20    21    1
    18    21    22    1
    19    22    23    1
    20    23    24    1
    21    24    25    1
    22    25    26    1
    23     4     5   ar
    24     5     6   ar
    25    13     8   ar
    26     6     1   ar
    27    19    15   ar
    28    26    21    1
    29     7    14    1
    30    24    27    1
@<TRIPOS>MOLECULE
*****
 27 30 0 0 0
SMALL
GASTEIGER

@<TRIPOS>ATOM
      1 C         140.2738  142.0835  164.2020 C.ar    1  UNL1        0.1060
      2 C         139.1001  141.1655  164.3746 C.ar    1  UNL1        0.0258
      3 C         138.8940  140.4480  165.6756 C.ar    1  UNL1        0.0608
      4 C         139.8617  140.6484  166.8041 C.ar    1  UNL1        0.2437
      5 N         141.0354  141.5664  166.6315 N.ar    1  UNL1       -0.1103
      6 N         141.2414  142.2839  165.3304 N.ar    1  UNL1       -0.1450
      7 O         140.4288  145.0790  164.1491 O.3     1  UNL1       -0.5054
      8 C         140.5573  144.2987  162.8745 C.ar    1  UNL1        0.1366
      9 C         140.7633  145.0162  161.5734 C.ar    1  UNL1        0.0558
     10 C         140.8918  144.2359  160.2988 C.ar    1  UNL1        0.0859
     11 C         140.8143  142.7382  160.3252 C.ar    1  UNL1        0.0194
     12 C         140.6083  142.0207  161.6263 C.ar    1  UNL1        0.0061
     13 C         140.4798  142.8010  162.9009 C.ar    1  UNL1        0.0532
     14 H         140.4773  146.0146  164.1326 H       1  UNL1        0.2922
     15 N         141.0978  144.9534  158.9977 N.ar    1  UNL1       -0.2280
     16 C         140.0212  145.5456  158.1373 C.ar    1  UNL1        0.1020
     17 C         140.6747  146.1629  156.9364 C.ar    1  UNL1        0.0431
     18 C         142.1551  145.9522  157.0547 C.ar    1  UNL1        0.1221
     19 N         142.4166  145.2048  158.3286 N.ar    1  UNL1       -0.1635
     20 O         139.6557  139.9309  168.1051 O.3     1  UNL1       -0.4629
     21 C         140.5193  140.2581  169.2871 C.3     1  UNL1        0.1704
     22 C         140.0969  141.3262  170.2518 C.3     1  UNL1        0.0607
     23 C         140.9606  141.6534  171.4338 C.3     1  UNL1        0.0723
     24 N         142.2467  140.9126  171.6510 N.3     1  UNL1       -0.2973
     25 C         142.6690  139.8445  170.6862 C.3     1  UNL1        0.0723
     26 C         141.8054  139.5173  169.5043 C.3     1  UNL1        0.0607
     27 H         142.1811  140.4715  172.5683 H       1  UNL1        0.1233
@<TRIPOS>BOND
     1     7     8    1
     2     8     9   ar
     3     9    10   ar
     4    10    15    1
     5    15    16   ar
     6    16    17   ar
     7    17    18   ar
     8    18    19   ar
     9    10    11   ar
    10    11    12   ar
    11    12    13   ar
    12    13     1    1
    13     1     2   ar
    14     2     3   ar
    15     3     4   ar
    16     4    20    1
    17    20    21    1
    18    21    22    1
    19    22    23    1
    20    23    24    1
    21    24    25    1
    22    25    26    1
    23     4     5   ar
    24     5     6   ar
    25    13     8   ar
    26     6     1   ar
    27    19    15   ar
    28    26    21    1
    29     7    14    1
    30    24    27    1
@<TRIPOS>MOLECULE
*****
 27 30 0 0 0
SMALL
GASTEIGER

@<TRIPOS>ATOM
      1 C         142.2228  139.1281  164.2426 C.ar    1  UNL1        0.1060
      2 C         143.3238  138.7944  165.2051 C.ar    1  UNL1        0.0258
      3 C         143.1187  138.9935  166.6776 C.ar    1  UNL1        0.0608
      4 C         141.8125  139.5263  167.1876 C.ar    1  UNL1        0.2437
      5 N         140.7115  139.8599  166.2252 N.ar    1  UNL1       -0.1103
      6 N         140.9166  139.6608  164.7526 N.ar    1  UNL1       -0.1450
      7 O         140.0436  137.9157  162.5749 O.3     1  UNL1       -0.5054
      8 C         141.3383  138.3228  161.9362 C.ar    1  UNL1        0.1366
      9 C         141.5435  138.1237  160.4638 C.ar    1  UNL1        0.0558
     10 C         142.8383  138.5307  159.8251 C.ar    1  UNL1        0.0859
     11 C         143.9279  139.1369  160.6590 C.ar    1  UNL1        0.0194
     12 C         143.7227  139.3360  162.1314 C.ar    1  UNL1        0.0061
     13 C         142.4279  138.9289  162.7701 C.ar    1  UNL1        0.0532
     14 H         139.3629  137.5371  162.0540 H       1  UNL1        0.2922
     15 N         143.0435  138.3316  158.3526 N.ar    1  UNL1       -0.2280
     16 C         142.6189  137.1327  157.5574 C.ar    1  UNL1        0.1020
     17 C         143.0222  137.3566  156.1301 C.ar    1  UNL1        0.0431
     18 C         143.6962  138.6939  156.0431 C.ar    1  UNL1        0.1221
     19 N         143.7093  139.2965  157.4167 N.ar    1  UNL1       -0.1635
     20 O         141.6074  139.7254  168.6601 O.3     1  UNL1       -0.4629
     21 C         141.6047  141.1102  169.2365 C.3     1  UNL1        0.1704
     22 C         140.3652  141.9516  169.1611 C.3     1  UNL1        0.0607
     23 C         140.3625  143.3364  169.7375 C.3     1  UNL1        0.0723
     24 N         141.5993  143.8799  170.3893 N.3     1  UNL1       -0.2973
     25 C         142.8388  143.0386  170.4647 C.3     1  UNL1        0.0723
     26 C         142.8415  141.6537  169.8883 C.3     1  UNL1        0.0607
     27 H         141.3463  144.1181  171.3483 H       1  UNL1        0.1233
@<TRIPOS>BOND
     1     7     8    1
     2     8     9   ar
     3     9    10   ar
     4    10    15    1
     5    15    16   ar
     6    16    17   ar
     7    17    18   ar
     8    18    19   ar
     9    10    11   ar
    10    11    12   ar
    11    12    13   ar
    12    13     1    1
    13     1     2   ar
    14     2     3   ar
    15     3     4   ar
    16     4    20    1
    17    20    21    1
    18    21    22    1
    19    22    23    1
    20    23    24    1
    21    24    25    1
    22    25    26    1
    23     4     5   ar
    24     5     6   ar
    25    13     8   ar
    26     6     1   ar
    27    19    15   ar
    28    26    21    1
    29     7    14    1
    30    24    27    1
@<TRIPOS>MOLECULE
*****
 27 30 0 0 0
SMALL
GASTEIGER

@<TRIPOS>ATOM
      1 C         142.4428  139.2145  162.7263 C.ar    1  UNL1        0.1060
      2 C         143.1180  137.9557  162.2687 C.ar    1  UNL1        0.0258
      3 C         143.4061  137.7462  160.8116 C.ar    1  UNL1        0.0608
      4 C         143.0190  138.7956  159.8121 C.ar    1  UNL1        0.2437
      5 N         142.3438  140.0544  160.2697 N.ar    1  UNL1       -0.1103
      6 N         142.0557  140.2639  161.7269 N.ar    1  UNL1       -0.1450
      7 O         139.6976  140.0424  163.6088 O.3     1  UNL1       -0.5054
      8 C         140.7822  139.8379  164.6247 C.ar    1  UNL1        0.1366
      9 C         140.4941  140.0473  166.0817 C.ar    1  UNL1        0.0558
     10 C         141.5786  139.8428  167.0976 C.ar    1  UNL1        0.0859
     11 C         142.9512  139.4289  166.6564 C.ar    1  UNL1        0.0194
     12 C         143.2392  139.2195  165.1993 C.ar    1  UNL1        0.0061
     13 C         142.1547  139.4240  164.1835 C.ar    1  UNL1        0.0532
     14 H         138.8402  140.3010  163.8844 H       1  UNL1        0.2922
     15 N         141.2905  140.0523  168.5548 N.ar    1  UNL1       -0.2280
     16 C         142.2673  140.5336  169.5864 C.ar    1  UNL1        0.1020
     17 C         141.5555  140.5960  170.9052 C.ar    1  UNL1        0.0431
     18 C         140.1388  140.1531  170.6888 C.ar    1  UNL1        0.1221
     19 N         139.9750  139.8171  169.2361 N.ar    1  UNL1       -0.1635
     20 O         143.3071  138.5861  158.3551 O.3     1  UNL1       -0.4629
     21 C         142.3859  137.7453  157.5217 C.3     1  UNL1        0.1704
     22 C         140.9731  138.1900  157.2849 C.3     1  UNL1        0.0607
     23 C         140.0519  137.3492  156.4515 C.3     1  UNL1        0.0723
     24 N         140.5436  136.0638  155.8549 N.3     1  UNL1       -0.2973
     25 C         141.9564  135.6192  156.0917 C.3     1  UNL1        0.0723
     26 C         142.8776  136.4599  156.9251 C.3     1  UNL1        0.0607
     27 H         140.4254  136.1437  154.8450 H       1  UNL1        0.1233
@<TRIPOS>BOND
     1     7     8    1
     2     8     9   ar
     3     9    10   ar
     4    10    15    1
     5    15    16   ar
     6    16    17   ar
     7    17    18   ar
     8    18    19   ar
     9    10    11   ar
    10    11    12   ar
    11    12    13   ar
    12    13     1    1
    13     1     2   ar
    14     2     3   ar
    15     3     4   ar
    16     4    20    1
    17    20    21    1
    18    21    22    1
    19    22    23    1
    20    23    24    1
    21    24    25    1
    22    25    26    1
    23     4     5   ar
    24     5     6   ar
    25    13     8   ar
    26     6     1   ar
    27    19    15   ar
    28    26    21    1
    29     7    14    1
    30    24    27    1
