@<TRIPOS>MOLECULE
*****
 33 37 0 0 0
SMALL
GASTEIGER

@<TRIPOS>ATOM
      1 C         140.5201  138.1887  162.1881 C.3     1  UNL1        0.0037
      2 C         140.2965  137.9511  163.6522 C.3     1  UNL1        0.0216
      3 C         141.4269  138.1292  164.6221 C.3     1  UNL1        0.0934
      4 N         142.7807  138.5450  164.1280 N.am    1  UNL1       -0.2793
      5 C         143.9110  138.7231  165.0980 C.2     1  UNL1        0.2301
      6 O         145.2648  139.1388  164.6038 O.2     1  UNL1       -0.2745
      7 C         143.0043  138.7825  162.6639 C.3     1  UNL1        0.0934
      8 C         141.8740  138.6044  161.6940 C.3     1  UNL1        0.0216
      9 C         139.3899  138.0106  161.2182 C.3     1  UNL1        0.0048
     10 C         138.1581  138.8581  161.3381 C.3     1  UNL1        0.0260
     11 C         137.7239  139.9865  164.0837 C.3     1  UNL1        0.0305
     12 C         138.0662  140.8989  162.9434 C.ar    1  UNL1       -0.0261
     13 C         138.2833  140.3347  161.5705 C.ar    1  UNL1       -0.0263
     14 C         138.6255  141.2471  160.4302 C.ar    1  UNL1       -0.0044
     15 C         138.7507  142.7236  160.6626 C.ar    1  UNL1        0.0059
     16 C         138.5337  143.2879  162.0354 C.ar    1  UNL1        0.0748
     17 C         138.1914  142.3755  163.1758 C.ar    1  UNL1        0.0233
     18 C         138.0352  143.2142  164.4096 C.3     1  UNL1        0.2352
     19 O         138.2809  144.6448  164.0317 O.3     1  UNL1       -0.4404
     20 C         138.5890  144.6904  162.5644 C.2     1  UNL1        0.3413
     21 O         138.8981  145.9222  161.7662 O.2     1  UNL1       -0.2449
     22 C         143.6873  138.4855  166.5621 C.3     1  UNL1        0.1116
     23 C         142.9035  139.4757  167.3713 C.ar    1  UNL1       -0.0130
     24 C         142.4185  139.1075  168.7422 C.ar    1  UNL1       -0.0022
     25 C         141.6347  140.0978  169.5516 C.ar    1  UNL1        0.0190
     26 C         141.3359  141.4562  168.9901 C.ar    1  UNL1        0.0862
     27 C         141.8209  141.8244  167.6192 C.ar    1  UNL1        0.0190
     28 C         142.6047  140.8342  166.8099 C.ar    1  UNL1       -0.0022
     29 N         140.5521  142.4465  169.7994 N.ar    1  UNL1       -0.1886
     30 C         140.5759  143.9370  169.6328 C.ar    1  UNL1        0.2258
     31 N         139.6454  144.5318  170.6479 N.ar    1  UNL1       -0.1045
     32 N         139.0464  143.4088  171.4418 N.ar    1  UNL1       -0.0222
     33 N         139.6068  142.1201  170.9174 N.ar    1  UNL1       -0.0385
@<TRIPOS>BOND
     1    11    12    1
     2    12    13   ar
     3    13    10    1
     4    10     9    1
     5     9     1    1
     6     1     2    1
     7     2     3    1
     8     3     4    1
     9     4     5   am
    10     5     6    2
    11     5    22    1
    12    22    23    1
    13    23    24   ar
    14    24    25   ar
    15    25    26   ar
    16    26    29    1
    17    29    30   ar
    18    30    31   ar
    19    31    32   ar
    20    32    33   ar
    21    26    27   ar
    22    27    28   ar
    23     4     7    1
    24     7     8    1
    25    13    14   ar
    26    14    15   ar
    27    15    16   ar
    28    16    17   ar
    29    17    18    1
    30    18    19    1
    31    19    20    1
    32    20    21    2
    33    17    12   ar
    34     8     1    1
    35    20    16    1
    36    28    23   ar
    37    33    29   ar
@<TRIPOS>MOLECULE
*****
 33 37 0 0 0
SMALL
GASTEIGER

@<TRIPOS>ATOM
      1 C         142.8584  141.5678  161.2549 C.3     1  UNL1        0.0037
      2 C         143.3361  141.5233  162.6761 C.3     1  UNL1        0.0216
      3 C         142.9972  140.3483  163.5448 C.3     1  UNL1        0.0934
      4 N         142.1806  139.2178  162.9923 N.am    1  UNL1       -0.2793
      5 C         141.8418  138.0429  163.8610 C.2     1  UNL1        0.2301
      6 O         141.0252  136.9124  163.3084 O.2     1  UNL1       -0.2745
      7 C         141.7029  139.2624  161.5710 C.3     1  UNL1        0.0934
      8 C         142.0418  140.4374  160.7024 C.3     1  UNL1        0.0216
      9 C         143.1972  142.7428  160.3862 C.3     1  UNL1        0.0048
     10 C         142.3879  144.0024  160.4791 C.3     1  UNL1        0.0260
     11 C         139.5070  143.1836  160.3051 C.3     1  UNL1        0.0305
     12 C         140.0334  143.8127  161.5610 C.ar    1  UNL1       -0.0261
     13 C         141.4739  144.2221  161.6481 C.ar    1  UNL1       -0.0263
     14 C         142.0002  144.8511  162.9038 C.ar    1  UNL1       -0.0044
     15 C         141.0862  145.0708  164.0727 C.ar    1  UNL1        0.0059
     16 C         139.6458  144.6614  163.9858 C.ar    1  UNL1        0.0748
     17 C         139.1194  144.0324  162.7299 C.ar    1  UNL1        0.0233
     18 C         137.6639  143.7338  162.9359 C.3     1  UNL1        0.2352
     19 O         137.2908  144.1784  164.3190 O.3     1  UNL1       -0.4404
     20 C         138.5157  144.7517  164.9679 C.2     1  UNL1        0.3413
     21 O         138.5962  145.3161  166.3553 O.2     1  UNL1       -0.2449
     22 C         142.3195  137.9984  165.2822 C.3     1  UNL1        0.1116
     23 C         141.8239  139.0106  166.2719 C.ar    1  UNL1       -0.0130
     24 C         142.7853  139.6689  167.2166 C.ar    1  UNL1       -0.0022
     25 C         142.2897  140.6812  168.2065 C.ar    1  UNL1        0.0190
     26 C         140.8327  141.0352  168.2516 C.ar    1  UNL1        0.0862
     27 C         139.8714  140.3768  167.3070 C.ar    1  UNL1        0.0190
     28 C         140.3669  139.3645  166.3171 C.ar    1  UNL1       -0.0022
     29 N         140.3371  142.0474  169.2414 N.ar    1  UNL1       -0.1886
     30 C         140.6666  143.5107  169.2461 C.ar    1  UNL1        0.2258
     31 N         139.9580  144.1417  170.4079 N.ar    1  UNL1       -0.1045
     32 N         139.1906  143.0683  171.1214 N.ar    1  UNL1       -0.0222
     33 N         139.4250  141.7739  170.4004 N.ar    1  UNL1       -0.0385
@<TRIPOS>BOND
     1    11    12    1
     2    12    13   ar
     3    13    10    1
     4    10     9    1
     5     9     1    1
     6     1     2    1
     7     2     3    1
     8     3     4    1
     9     4     5   am
    10     5     6    2
    11     5    22    1
    12    22    23    1
    13    23    24   ar
    14    24    25   ar
    15    25    26   ar
    16    26    29    1
    17    29    30   ar
    18    30    31   ar
    19    31    32   ar
    20    32    33   ar
    21    26    27   ar
    22    27    28   ar
    23     4     7    1
    24     7     8    1
    25    13    14   ar
    26    14    15   ar
    27    15    16   ar
    28    16    17   ar
    29    17    18    1
    30    18    19    1
    31    19    20    1
    32    20    21    2
    33    17    12   ar
    34     8     1    1
    35    20    16    1
    36    28    23   ar
    37    33    29   ar
@<TRIPOS>MOLECULE
*****
 33 37 0 0 0
SMALL
GASTEIGER

@<TRIPOS>ATOM
      1 C         140.4196  138.9901  161.2377 C.3     1  UNL1        0.0037
      2 C         140.4371  138.3485  162.5934 C.3     1  UNL1        0.0216
      3 C         141.6257  138.5249  163.4913 C.3     1  UNL1        0.0934
      4 N         142.7967  139.3429  163.0336 N.am    1  UNL1       -0.2793
      5 C         143.9852  139.5193  163.9315 C.2     1  UNL1        0.2301
      6 O         145.1562  140.3373  163.4737 O.2     1  UNL1       -0.2745
      7 C         142.7791  139.9846  161.6778 C.3     1  UNL1        0.0934
      8 C         141.5906  139.8081  160.7799 C.3     1  UNL1        0.0216
      9 C         139.2311  138.8138  160.3398 C.3     1  UNL1        0.0048
     10 C         138.1605  139.8636  160.2978 C.3     1  UNL1        0.0260
     11 C         139.5286  142.4306  159.5636 C.3     1  UNL1        0.0305
     12 C         138.8733  142.2871  160.9053 C.ar    1  UNL1       -0.0261
     13 C         138.1892  141.0035  161.2724 C.ar    1  UNL1       -0.0263
     14 C         137.5339  140.8600  162.6139 C.ar    1  UNL1       -0.0044
     15 C         137.5626  141.9999  163.5885 C.ar    1  UNL1        0.0059
     16 C         138.2466  143.2834  163.2215 C.ar    1  UNL1        0.0748
     17 C         138.9020  143.4269  161.8799 C.ar    1  UNL1        0.0233
     18 C         139.4959  144.8020  161.7988 C.3     1  UNL1        0.2352
     19 O         139.2076  145.5082  163.0904 O.3     1  UNL1       -0.4404
     20 C         138.4355  144.5697  163.9696 C.2     1  UNL1        0.3413
     21 O         137.9394  144.8655  165.3539 O.2     1  UNL1       -0.2449
     22 C         144.0027  138.8776  165.2872 C.3     1  UNL1        0.1116
     23 C         143.3048  139.5385  166.4388 C.ar    1  UNL1       -0.0130
     24 C         143.0315  138.7645  167.6942 C.ar    1  UNL1       -0.0022
     25 C         142.3336  139.4254  168.8459 C.ar    1  UNL1        0.0190
     26 C         141.9091  140.8603  168.7420 C.ar    1  UNL1        0.0862
     27 C         142.1824  141.6343  167.4865 C.ar    1  UNL1        0.0190
     28 C         142.8803  140.9734  166.3349 C.ar    1  UNL1       -0.0022
     29 N         141.2112  141.5212  169.8936 N.ar    1  UNL1       -0.1886
     30 C         140.0240  142.4331  169.7992 C.ar    1  UNL1        0.2258
     31 N         139.6571  142.8617  171.1890 N.ar    1  UNL1       -0.1045
     32 N         140.6176  142.2148  172.1425 N.ar    1  UNL1       -0.0222
     33 N         141.5781  141.3863  171.3417 N.ar    1  UNL1       -0.0385
@<TRIPOS>BOND
     1    11    12    1
     2    12    13   ar
     3    13    10    1
     4    10     9    1
     5     9     1    1
     6     1     2    1
     7     2     3    1
     8     3     4    1
     9     4     5   am
    10     5     6    2
    11     5    22    1
    12    22    23    1
    13    23    24   ar
    14    24    25   ar
    15    25    26   ar
    16    26    29    1
    17    29    30   ar
    18    30    31   ar
    19    31    32   ar
    20    32    33   ar
    21    26    27   ar
    22    27    28   ar
    23     4     7    1
    24     7     8    1
    25    13    14   ar
    26    14    15   ar
    27    15    16   ar
    28    16    17   ar
    29    17    18    1
    30    18    19    1
    31    19    20    1
    32    20    21    2
    33    17    12   ar
    34     8     1    1
    35    20    16    1
    36    28    23   ar
    37    33    29   ar
@<TRIPOS>MOLECULE
*****
 33 37 0 0 0
SMALL
GASTEIGER

@<TRIPOS>ATOM
      1 C         141.7902  139.5969  160.9568 C.3     1  UNL1        0.0037
      2 C         141.6572  138.9066  162.2818 C.3     1  UNL1        0.0216
      3 C         140.4424  139.1399  163.1304 C.3     1  UNL1        0.0934
      4 N         139.3607  140.0635  162.6539 N.am    1  UNL1       -0.2793
      5 C         138.1460  140.2967  163.5024 C.2     1  UNL1        0.2301
      6 O         137.0644  141.2203  163.0260 O.2     1  UNL1       -0.2745
      7 C         139.4939  140.7538  161.3288 C.3     1  UNL1        0.0934
      8 C         140.7086  140.5205  160.4803 C.3     1  UNL1        0.0216
      9 C         143.0049  139.3636  160.1082 C.3     1  UNL1        0.0048
     10 C         144.2695  140.1217  160.3843 C.3     1  UNL1        0.0260
     11 C         143.3991  142.9864  160.1934 C.3     1  UNL1        0.0305
     12 C         143.9261  142.4475  161.4904 C.ar    1  UNL1       -0.0261
     13 C         144.3613  141.0151  161.5858 C.ar    1  UNL1       -0.0263
     14 C         144.8882  140.4762  162.8826 C.ar    1  UNL1       -0.0044
     15 C         144.9801  141.3695  164.0840 C.ar    1  UNL1        0.0059
     16 C         144.5449  142.8018  163.9887 C.ar    1  UNL1        0.0748
     17 C         144.0179  143.3408  162.6918 C.ar    1  UNL1        0.0233
     18 C         143.6665  144.7843  162.8984 C.3     1  UNL1        0.2352
     19 O         143.9764  145.1375  164.3229 O.3     1  UNL1       -0.4404
     20 C         144.5192  143.9122  164.9967 C.2     1  UNL1        0.3413
     21 O         144.9591  143.8146  166.4274 O.2     1  UNL1       -0.2449
     22 C         138.0130  139.6064  164.8275 C.3     1  UNL1        0.1116
     23 C         138.7225  140.1512  166.0315 C.ar    1  UNL1       -0.0130
     24 C         139.5216  141.4159  165.9225 C.ar    1  UNL1       -0.0022
     25 C         140.2312  141.9609  167.1266 C.ar    1  UNL1        0.0190
     26 C         140.1417  141.2410  168.4395 C.ar    1  UNL1        0.0862
     27 C         139.3425  139.9763  168.5484 C.ar    1  UNL1        0.0190
     28 C         138.6329  139.4314  167.3444 C.ar    1  UNL1       -0.0022
     29 N         140.8512  141.7859  169.6435 N.ar    1  UNL1       -0.1886
     30 C         141.9706  142.7843  169.6305 C.ar    1  UNL1        0.2258
     31 N         142.3771  143.0433  171.0509 N.ar    1  UNL1       -0.1045
     32 N         141.5090  142.2050  171.9419 N.ar    1  UNL1       -0.0222
     33 N         140.5659  141.4279  171.0720 N.ar    1  UNL1       -0.0385
@<TRIPOS>BOND
     1    11    12    1
     2    12    13   ar
     3    13    10    1
     4    10     9    1
     5     9     1    1
     6     1     2    1
     7     2     3    1
     8     3     4    1
     9     4     5   am
    10     5     6    2
    11     5    22    1
    12    22    23    1
    13    23    24   ar
    14    24    25   ar
    15    25    26   ar
    16    26    29    1
    17    29    30   ar
    18    30    31   ar
    19    31    32   ar
    20    32    33   ar
    21    26    27   ar
    22    27    28   ar
    23     4     7    1
    24     7     8    1
    25    13    14   ar
    26    14    15   ar
    27    15    16   ar
    28    16    17   ar
    29    17    18    1
    30    18    19    1
    31    19    20    1
    32    20    21    2
    33    17    12   ar
    34     8     1    1
    35    20    16    1
    36    28    23   ar
    37    33    29   ar
@<TRIPOS>MOLECULE
*****
 33 37 0 0 0
SMALL
GASTEIGER

@<TRIPOS>ATOM
      1 C         142.3128  142.2206  159.7903 C.3     1  UNL1        0.0037
      2 C         141.9528  141.0043  160.5908 C.3     1  UNL1        0.0216
      3 C         142.8416  140.5546  161.7125 C.3     1  UNL1        0.0934
      4 N         144.0902  141.3213  162.0336 N.am    1  UNL1       -0.2793
      5 C         144.9789  140.8716  163.1552 C.2     1  UNL1        0.2301
      6 O         146.2275  141.6383  163.4762 O.2     1  UNL1       -0.2745
      7 C         144.4501  142.5377  161.2330 C.3     1  UNL1        0.0934
      8 C         143.5614  142.9873  160.1114 C.3     1  UNL1        0.0216
      9 C         141.4241  142.6703  158.6687 C.3     1  UNL1        0.0048
     10 C         140.2878  143.6103  158.9429 C.3     1  UNL1        0.0260
     11 C         138.3510  141.7230  160.2419 C.3     1  UNL1        0.0305
     12 C         138.8688  142.9075  161.0028 C.ar    1  UNL1       -0.0261
     13 C         139.8372  143.8512  160.3533 C.ar    1  UNL1       -0.0263
     14 C         140.3551  145.0356  161.1141 C.ar    1  UNL1       -0.0044
     15 C         139.9046  145.2764  162.5244 C.ar    1  UNL1        0.0059
     16 C         138.9363  144.3328  163.1739 C.ar    1  UNL1        0.0748
     17 C         138.4184  143.1483  162.4131 C.ar    1  UNL1        0.0233
     18 C         137.4793  142.3964  163.3090 C.3     1  UNL1        0.2352
     19 O         137.4168  143.1162  164.6235 O.3     1  UNL1       -0.4404
     20 C         138.3172  144.3129  164.5401 C.2     1  UNL1        0.3413
     21 O         138.5566  145.3140  165.6312 O.2     1  UNL1       -0.2449
     22 C         144.6189  139.6552  163.9557 C.3     1  UNL1        0.1116
     23 C         143.7824  139.7924  165.1932 C.ar    1  UNL1       -0.0130
     24 C         143.6768  138.6484  166.1576 C.ar    1  UNL1       -0.0022
     25 C         142.8402  138.7856  167.3952 C.ar    1  UNL1        0.0190
     26 C         142.1094  140.0667  167.6683 C.ar    1  UNL1        0.0862
     27 C         142.2152  141.2107  166.7039 C.ar    1  UNL1        0.0190
     28 C         143.0516  141.0736  165.4663 C.ar    1  UNL1       -0.0022
     29 N         141.2730  140.2039  168.9058 N.ar    1  UNL1       -0.1886
     30 C         141.7205  140.7898  170.2121 C.ar    1  UNL1        0.2258
     31 N         140.5662  140.7273  171.1679 N.ar    1  UNL1       -0.1045
     32 N         139.4051  140.1027  170.4523 N.ar    1  UNL1       -0.0222
     33 N         139.8420  139.7793  169.0543 N.ar    1  UNL1       -0.0385
@<TRIPOS>BOND
     1    11    12    1
     2    12    13   ar
     3    13    10    1
     4    10     9    1
     5     9     1    1
     6     1     2    1
     7     2     3    1
     8     3     4    1
     9     4     5   am
    10     5     6    2
    11     5    22    1
    12    22    23    1
    13    23    24   ar
    14    24    25   ar
    15    25    26   ar
    16    26    29    1
    17    29    30   ar
    18    30    31   ar
    19    31    32   ar
    20    32    33   ar
    21    26    27   ar
    22    27    28   ar
    23     4     7    1
    24     7     8    1
    25    13    14   ar
    26    14    15   ar
    27    15    16   ar
    28    16    17   ar
    29    17    18    1
    30    18    19    1
    31    19    20    1
    32    20    21    2
    33    17    12   ar
    34     8     1    1
    35    20    16    1
    36    28    23   ar
    37    33    29   ar
@<TRIPOS>MOLECULE
*****
 33 37 0 0 0
SMALL
GASTEIGER

@<TRIPOS>ATOM
      1 C         141.8597  138.8988  159.8814 C.3     1  UNL1        0.0037
      2 C         141.9340  138.1929  161.2028 C.3     1  UNL1        0.0216
      3 C         142.8952  138.6660  162.2528 C.3     1  UNL1        0.0934
      4 N         143.7819  139.8451  161.9814 N.am    1  UNL1       -0.2793
      5 C         144.7430  140.3181  163.0314 C.2     1  UNL1        0.2301
      6 O         145.6297  141.4971  162.7599 O.2     1  UNL1       -0.2745
      7 C         143.7075  140.5509  160.6599 C.3     1  UNL1        0.0934
      8 C         142.7464  140.0778  159.6100 C.3     1  UNL1        0.0216
      9 C         140.8986  138.4257  158.8314 C.3     1  UNL1        0.0048
     10 C         139.4814  138.9171  158.8357 C.3     1  UNL1        0.0260
     11 C         138.2609  138.4269  161.5321 C.3     1  UNL1        0.0305
     12 C         138.4819  139.8311  161.0530 C.ar    1  UNL1       -0.0261
     13 C         139.0921  140.0762  159.7047 C.ar    1  UNL1       -0.0263
     14 C         139.3131  141.4802  159.2256 C.ar    1  UNL1       -0.0044
     15 C         138.9239  142.6393  160.0945 C.ar    1  UNL1        0.0059
     16 C         138.3136  142.3943  161.4426 C.ar    1  UNL1        0.0748
     17 C         138.0926  140.9902  161.9219 C.ar    1  UNL1        0.0233
     18 C         137.4755  141.0581  163.2874 C.3     1  UNL1        0.2352
     19 O         137.3151  142.5042  163.6520 O.3     1  UNL1       -0.4404
     20 C         137.8331  143.3300  162.5120 C.2     1  UNL1        0.3413
     21 O         137.8650  144.8285  162.4518 O.2     1  UNL1       -0.2449
     22 C         144.8173  139.6122  164.3528 C.3     1  UNL1        0.1116
     23 C         143.8068  139.9107  165.4203 C.ar    1  UNL1       -0.0130
     24 C         143.2097  141.2827  165.5252 C.ar    1  UNL1       -0.0022
     25 C         142.1991  141.5813  166.5928 C.ar    1  UNL1        0.0190
     26 C         141.7857  140.5078  167.5555 C.ar    1  UNL1        0.0862
     27 C         142.3828  139.1358  167.4505 C.ar    1  UNL1        0.0190
     28 C         143.3934  138.8372  166.3830 C.ar    1  UNL1       -0.0022
     29 N         140.7752  140.8063  168.6230 N.ar    1  UNL1       -0.1886
     30 C         140.6528  142.0915  169.3867 C.ar    1  UNL1        0.2258
     31 N         139.5115  141.9513  170.3500 N.ar    1  UNL1       -0.1045
     32 N         138.9286  140.5795  170.1817 N.ar    1  UNL1       -0.0222
     33 N         139.7096  139.8718  169.1144 N.ar    1  UNL1       -0.0385
@<TRIPOS>BOND
     1    11    12    1
     2    12    13   ar
     3    13    10    1
     4    10     9    1
     5     9     1    1
     6     1     2    1
     7     2     3    1
     8     3     4    1
     9     4     5   am
    10     5     6    2
    11     5    22    1
    12    22    23    1
    13    23    24   ar
    14    24    25   ar
    15    25    26   ar
    16    26    29    1
    17    29    30   ar
    18    30    31   ar
    19    31    32   ar
    20    32    33   ar
    21    26    27   ar
    22    27    28   ar
    23     4     7    1
    24     7     8    1
    25    13    14   ar
    26    14    15   ar
    27    15    16   ar
    28    16    17   ar
    29    17    18    1
    30    18    19    1
    31    19    20    1
    32    20    21    2
    33    17    12   ar
    34     8     1    1
    35    20    16    1
    36    28    23   ar
    37    33    29   ar
@<TRIPOS>MOLECULE
*****
 33 37 0 0 0
SMALL
GASTEIGER

@<TRIPOS>ATOM
      1 C         141.6708  142.2980  166.8318 C.3     1  UNL1        0.0037
      2 C         140.4767  142.9022  166.1543 C.3     1  UNL1        0.0216
      3 C         140.6473  143.6674  164.8754 C.3     1  UNL1        0.0934
      4 N         142.0121  143.8284  164.2741 N.am    1  UNL1       -0.2793
      5 C         142.1826  144.5936  162.9953 C.2     1  UNL1        0.2301
      6 O         143.5473  144.7546  162.3940 O.2     1  UNL1       -0.2745
      7 C         143.2062  143.2242  164.9517 C.3     1  UNL1        0.0934
      8 C         143.0355  142.4590  166.2305 C.3     1  UNL1        0.0216
      9 C         141.5003  141.5328  168.1106 C.3     1  UNL1        0.0048
     10 C         140.9907  140.1224  168.0784 C.3     1  UNL1        0.0260
     11 C         142.8512  138.7159  166.1914 C.3     1  UNL1        0.0305
     12 C         141.3948  138.8408  165.8547 C.ar    1  UNL1       -0.0261
     13 C         140.4645  139.5440  166.7982 C.ar    1  UNL1       -0.0263
     14 C         139.0082  139.6689  166.4616 C.ar    1  UNL1       -0.0044
     15 C         138.4820  139.0906  165.1815 C.ar    1  UNL1        0.0059
     16 C         139.4122  138.3874  164.2380 C.ar    1  UNL1        0.0748
     17 C         140.8686  138.2625  164.5746 C.ar    1  UNL1        0.0233
     18 C         141.5406  137.5202  163.4577 C.3     1  UNL1        0.2352
     19 O         140.4994  137.1864  162.4308 O.3     1  UNL1       -0.4404
     20 C         139.1840  137.7223  162.9130 C.2     1  UNL1        0.3413
     21 O         137.8710  137.6125  162.1962 O.2     1  UNL1       -0.2449
     22 C         140.9884  145.1978  162.3178 C.3     1  UNL1        0.1116
     23 C         140.2477  144.4208  161.2702 C.ar    1  UNL1       -0.0130
     24 C         140.5429  144.6504  159.8175 C.ar    1  UNL1       -0.0022
     25 C         139.8022  143.8734  158.7697 C.ar    1  UNL1        0.0190
     26 C         138.7663  142.8669  159.1747 C.ar    1  UNL1        0.0862
     27 C         138.4712  142.6374  160.6274 C.ar    1  UNL1        0.0190
     28 C         139.2119  143.4144  161.6751 C.ar    1  UNL1       -0.0022
     29 N         138.0256  142.0899  158.1270 N.ar    1  UNL1       -0.1886
     30 C         137.4578  142.6450  156.8544 C.ar    1  UNL1        0.2258
     31 N         136.8040  141.5195  156.1090 N.ar    1  UNL1       -0.1045
     32 N         136.9676  140.2688  156.9208 N.ar    1  UNL1       -0.0222
     33 N         137.7227  140.6214  158.1680 N.ar    1  UNL1       -0.0385
@<TRIPOS>BOND
     1    11    12    1
     2    12    13   ar
     3    13    10    1
     4    10     9    1
     5     9     1    1
     6     1     2    1
     7     2     3    1
     8     3     4    1
     9     4     5   am
    10     5     6    2
    11     5    22    1
    12    22    23    1
    13    23    24   ar
    14    24    25   ar
    15    25    26   ar
    16    26    29    1
    17    29    30   ar
    18    30    31   ar
    19    31    32   ar
    20    32    33   ar
    21    26    27   ar
    22    27    28   ar
    23     4     7    1
    24     7     8    1
    25    13    14   ar
    26    14    15   ar
    27    15    16   ar
    28    16    17   ar
    29    17    18    1
    30    18    19    1
    31    19    20    1
    32    20    21    2
    33    17    12   ar
    34     8     1    1
    35    20    16    1
    36    28    23   ar
    37    33    29   ar
@<TRIPOS>MOLECULE
*****
 33 37 0 0 0
SMALL
GASTEIGER

@<TRIPOS>ATOM
      1 C         142.8379  139.5721  160.2700 C.3     1  UNL1        0.0037
      2 C         143.3171  139.2531  161.6551 C.3     1  UNL1        0.0216
      3 C         142.3558  138.7241  162.6780 C.3     1  UNL1        0.0934
      4 N         140.9155  138.5141  162.3157 N.am    1  UNL1       -0.2793
      5 C         139.9543  137.9851  163.3386 C.2     1  UNL1        0.2301
      6 O         138.5140  137.7751  162.9763 O.2     1  UNL1       -0.2745
      7 C         140.4363  138.8331  160.9305 C.3     1  UNL1        0.0934
      8 C         141.3976  139.3621  159.9077 C.3     1  UNL1        0.0216
      9 C         143.7991  140.1011  159.2471 C.3     1  UNL1        0.0048
     10 C         144.0933  141.5706  159.1838 C.3     1  UNL1        0.0260
     11 C         144.6724  142.7267  161.8909 C.3     1  UNL1        0.0305
     12 C         143.4310  143.1314  161.1525 C.ar    1  UNL1       -0.0261
     13 C         143.1414  142.5534  159.7989 C.ar    1  UNL1       -0.0263
     14 C         141.9001  142.9580  159.0605 C.ar    1  UNL1       -0.0044
     15 C         140.9483  143.9406  159.6755 C.ar    1  UNL1        0.0059
     16 C         141.2378  144.5187  161.0291 C.ar    1  UNL1        0.0748
     17 C         142.4791  144.1141  161.7675 C.ar    1  UNL1        0.0233
     18 C         142.4991  144.8460  163.0767 C.3     1  UNL1        0.2352
     19 O         141.2700  145.7030  163.1473 O.3     1  UNL1       -0.4404
     20 C         140.4905  145.5007  161.8818 C.2     1  UNL1        0.3413
     21 O         139.1917  146.1640  161.5308 O.2     1  UNL1       -0.2449
     22 C         140.4335  137.6660  164.7237 C.3     1  UNL1        0.1116
     23 C         140.3290  138.6959  165.8092 C.ar    1  UNL1       -0.0130
     24 C         141.5193  139.5382  166.1610 C.ar    1  UNL1       -0.0022
     25 C         141.4149  140.5682  167.2466 C.ar    1  UNL1        0.0190
     26 C         140.1201  140.7559  167.9802 C.ar    1  UNL1        0.0862
     27 C         138.9298  139.9136  167.6284 C.ar    1  UNL1        0.0190
     28 C         139.0342  138.8837  166.5429 C.ar    1  UNL1       -0.0022
     29 N         140.0156  141.7858  169.0657 N.ar    1  UNL1       -0.1886
     30 C         140.4462  143.2192  168.9656 C.ar    1  UNL1        0.2258
     31 N         140.1588  143.8824  170.2799 N.ar    1  UNL1       -0.1045
     32 N         139.5505  142.8589  171.1924 N.ar    1  UNL1       -0.0222
     33 N         139.4620  141.5632  170.4419 N.ar    1  UNL1       -0.0385
@<TRIPOS>BOND
     1    11    12    1
     2    12    13   ar
     3    13    10    1
     4    10     9    1
     5     9     1    1
     6     1     2    1
     7     2     3    1
     8     3     4    1
     9     4     5   am
    10     5     6    2
    11     5    22    1
    12    22    23    1
    13    23    24   ar
    14    24    25   ar
    15    25    26   ar
    16    26    29    1
    17    29    30   ar
    18    30    31   ar
    19    31    32   ar
    20    32    33   ar
    21    26    27   ar
    22    27    28   ar
    23     4     7    1
    24     7     8    1
    25    13    14   ar
    26    14    15   ar
    27    15    16   ar
    28    16    17   ar
    29    17    18    1
    30    18    19    1
    31    19    20    1
    32    20    21    2
    33    17    12   ar
    34     8     1    1
    35    20    16    1
    36    28    23   ar
    37    33    29   ar
@<TRIPOS>MOLECULE
*****
 33 37 0 0 0
SMALL
GASTEIGER

@<TRIPOS>ATOM
      1 C         142.3587  139.9662  166.2107 C.3     1  UNL1        0.0037
      2 C         142.0990  138.9733  165.1167 C.3     1  UNL1        0.0216
      3 C         142.8245  139.0912  163.8091 C.3     1  UNL1        0.0934
      4 N         143.8096  140.2020  163.5954 N.am    1  UNL1       -0.2793
      5 C         144.5350  140.3198  162.2878 C.2     1  UNL1        0.2301
      6 O         145.5201  141.4306  162.0741 O.2     1  UNL1       -0.2745
      7 C         144.0692  141.1949  164.6894 C.3     1  UNL1        0.0934
      8 C         143.3438  141.0770  165.9970 C.3     1  UNL1        0.0216
      9 C         141.6332  139.8484  167.5183 C.3     1  UNL1        0.0048
     10 C         140.3197  140.5461  167.7128 C.3     1  UNL1        0.0260
     11 C         138.4998  139.2259  165.7264 C.3     1  UNL1        0.0305
     12 C         138.8133  140.6874  165.6007 C.ar    1  UNL1       -0.0261
     13 C         139.7232  141.3476  166.5938 C.ar    1  UNL1       -0.0263
     14 C         140.0367  142.8090  166.4681 C.ar    1  UNL1       -0.0044
     15 C         139.4402  143.6104  165.3492 C.ar    1  UNL1        0.0059
     16 C         138.5303  142.9504  164.3561 C.ar    1  UNL1        0.0748
     17 C         138.2168  141.4889  164.4818 C.ar    1  UNL1        0.0233
     18 C         137.2928  141.1149  163.3609 C.3     1  UNL1        0.2352
     19 O         137.0352  142.3453  162.5425 O.3     1  UNL1       -0.4404
     20 C         137.8000  143.4797  163.1575 C.2     1  UNL1        0.3413
     21 O         137.8294  144.8948  162.6611 O.2     1  UNL1       -0.2449
     22 C         144.2753  139.3269  161.1939 C.3     1  UNL1        0.1116
     23 C         143.0417  139.4474  160.3491 C.ar    1  UNL1       -0.0130
     24 C         142.2955  140.7474  160.2926 C.ar    1  UNL1       -0.0022
     25 C         141.0618  140.8679  159.4478 C.ar    1  UNL1        0.0190
     26 C         140.5744  139.6885  158.6595 C.ar    1  UNL1        0.0862
     27 C         141.3207  138.3885  158.7161 C.ar    1  UNL1        0.0190
     28 C         142.5543  138.2680  159.5608 C.ar    1  UNL1       -0.0022
     29 N         139.3408  139.8090  157.8147 N.ar    1  UNL1       -0.1886
     30 C         139.2239  139.4356  156.3666 C.ar    1  UNL1        0.2258
     31 N         137.8184  139.7199  155.9267 N.ar    1  UNL1       -0.1045
     32 N         137.0665  140.2690  157.1029 N.ar    1  UNL1       -0.0222
     33 N         138.0075  140.3240  158.2697 N.ar    1  UNL1       -0.0385
@<TRIPOS>BOND
     1    11    12    1
     2    12    13   ar
     3    13    10    1
     4    10     9    1
     5     9     1    1
     6     1     2    1
     7     2     3    1
     8     3     4    1
     9     4     5   am
    10     5     6    2
    11     5    22    1
    12    22    23    1
    13    23    24   ar
    14    24    25   ar
    15    25    26   ar
    16    26    29    1
    17    29    30   ar
    18    30    31   ar
    19    31    32   ar
    20    32    33   ar
    21    26    27   ar
    22    27    28   ar
    23     4     7    1
    24     7     8    1
    25    13    14   ar
    26    14    15   ar
    27    15    16   ar
    28    16    17   ar
    29    17    18    1
    30    18    19    1
    31    19    20    1
    32    20    21    2
    33    17    12   ar
    34     8     1    1
    35    20    16    1
    36    28    23   ar
    37    33    29   ar
