@<TRIPOS>MOLECULE
*****
 26 29 0 0 0
SMALL
GASTEIGER

@<TRIPOS>ATOM
      1 C         138.7907  143.7303  164.0441 C.ar    1  UNL1        0.1354
      2 C         139.5335  144.0392  165.3101 C.ar    1  UNL1        0.0414
      3 C         139.8590  142.9388  166.2761 C.ar    1  UNL1        0.0177
      4 C         139.4416  141.5296  165.9761 C.ar    1  UNL1        0.0440
      5 C         138.6988  141.2208  164.7102 C.ar    1  UNL1       -0.0038
      6 C         138.3733  142.3211  163.7441 C.ar    1  UNL1        0.0372
      7 C         138.4188  139.7474  164.6847 C.3     1  UNL1        0.0491
      8 C         138.9886  139.1456  165.9350 C.3     1  UNL1        0.0954
      9 N         139.6207  140.2471  166.7332 N.pl3   1  UNL1       -0.3089
     10 C         140.3108  140.0931  168.0561 C.3     1  UNL1        0.0755
     11 C         141.7776  139.7830  168.1053 C.3     1  UNL1        0.0368
     12 C         142.4676  139.6291  169.4282 C.3     1  UNL1        0.0703
     13 N         141.6909  139.7852  170.7019 N.3     1  UNL1       -0.2974
     14 C         140.2241  140.0953  170.6527 C.3     1  UNL1        0.0703
     15 C         139.5341  140.2492  169.3298 C.3     1  UNL1        0.0368
     16 H         142.1339  140.5396  171.2263 H       1  UNL1        0.1232
     17 N         138.4652  144.8307  163.0779 N.pl3   1  UNL1       -0.1990
     18 H         137.5349  145.1355  162.9743 H       1  UNL1        0.2985
     19 N         139.2338  146.5762  161.3138 N.2     1  UNL1       -0.0985
     20 C         139.5572  145.4666  162.2698 C.2     1  UNL1        0.3224
     21 H         138.3047  146.8872  161.2167 H       1  UNL1        0.3633
     22 C         140.9728  144.9929  162.4178 C.ar    1  UNL1        0.1114
     23 C         141.9565  145.4627  163.4481 C.ar    1  UNL1        0.0144
     24 C         143.2449  144.7264  163.2285 C.ar    1  UNL1        0.0077
     25 C         143.0573  143.8016  162.0624 C.ar    1  UNL1        0.0357
     26 S         141.6531  143.9663  161.5614 S.2     1  UNL1       -0.0792
@<TRIPOS>BOND
     1    19    20    2
     2    20    17    1
     3    17     1    1
     4     1     2   ar
     5     2     3   ar
     6     3     4   ar
     7     4     5   ar
     8     5     6   ar
     9     5     7    1
    10     7     8    1
    11     8     9    1
    12     9    10    1
    13    10    11    1
    14    11    12    1
    15    12    13    1
    16    13    14    1
    17    14    15    1
    18    20    22    1
    19    22    23   ar
    20    23    24   ar
    21    24    25   ar
    22    25    26   ar
    23     6     1   ar
    24    15    10    1
    25    26    22   ar
    26     9     4    1
    27    19    21    1
    28    17    18    1
    29    13    16    1
@<TRIPOS>MOLECULE
*****
 26 29 0 0 0
SMALL
GASTEIGER

@<TRIPOS>ATOM
      1 C         138.9922  143.6443  163.9831 C.ar    1  UNL1        0.1354
      2 C         139.8354  143.9540  165.1844 C.ar    1  UNL1        0.0414
      3 C         140.0748  142.9000  166.2245 C.ar    1  UNL1        0.0177
      4 C         139.4710  141.5364  166.0633 C.ar    1  UNL1        0.0440
      5 C         138.6279  141.2267  164.8620 C.ar    1  UNL1       -0.0038
      6 C         138.3885  142.2806  163.8219 C.ar    1  UNL1        0.0372
      7 C         138.1673  139.8035  164.9734 C.3     1  UNL1        0.0491
      8 C         138.7259  139.2336  166.2436 C.3     1  UNL1        0.0954
      9 N         139.5316  140.3046  166.9172 N.pl3   1  UNL1       -0.3089
     10 C         140.2685  140.1678  168.2165 C.3     1  UNL1        0.0755
     11 C         141.7321  139.8392  168.2177 C.3     1  UNL1        0.0368
     12 C         142.4689  139.7025  169.5171 C.3     1  UNL1        0.0703
     13 N         141.7423  139.8943  170.8152 N.3     1  UNL1       -0.2974
     14 C         140.2787  140.2229  170.8140 C.3     1  UNL1        0.0703
     15 C         139.5419  140.3597  169.5146 C.3     1  UNL1        0.0368
     16 H         142.2140  140.6531  171.3073 H       1  UNL1        0.1232
     17 N         138.7527  144.6982  162.9429 N.pl3   1  UNL1       -0.1990
     18 H         137.8352  144.9952  162.7452 H       1  UNL1        0.2985
     19 N         140.0115  146.7884  162.0504 N.2     1  UNL1       -0.0985
     20 C         139.9113  145.2997  162.2040 C.2     1  UNL1        0.3224
     21 H         139.3168  147.3708  162.4345 H       1  UNL1        0.3633
     22 C         140.9697  144.4123  161.6188 C.ar    1  UNL1        0.1114
     23 C         140.7935  143.4761  160.4602 C.ar    1  UNL1        0.0144
     24 C         142.1051  142.7906  160.2147 C.ar    1  UNL1        0.0077
     25 C         143.0917  143.3033  161.2216 C.ar    1  UNL1        0.0357
     26 S         142.3900  144.3056  162.0893 S.2     1  UNL1       -0.0792
@<TRIPOS>BOND
     1    19    20    2
     2    20    17    1
     3    17     1    1
     4     1     2   ar
     5     2     3   ar
     6     3     4   ar
     7     4     5   ar
     8     5     6   ar
     9     5     7    1
    10     7     8    1
    11     8     9    1
    12     9    10    1
    13    10    11    1
    14    11    12    1
    15    12    13    1
    16    13    14    1
    17    14    15    1
    18    20    22    1
    19    22    23   ar
    20    23    24   ar
    21    24    25   ar
    22    25    26   ar
    23     6     1   ar
    24    15    10    1
    25    26    22   ar
    26     9     4    1
    27    19    21    1
    28    17    18    1
    29    13    16    1
@<TRIPOS>MOLECULE
*****
 26 29 0 0 0
SMALL
GASTEIGER

@<TRIPOS>ATOM
      1 C         142.1916  140.5013  167.2497 C.ar    1  UNL1        0.1354
      2 C         142.9244  141.5848  166.5156 C.ar    1  UNL1        0.0414
      3 C         142.2762  142.2720  165.3505 C.ar    1  UNL1        0.0177
      4 C         140.8952  141.8757  164.9195 C.ar    1  UNL1        0.0440
      5 C         140.1624  140.7922  165.6537 C.ar    1  UNL1       -0.0038
      6 C         140.8106  140.1050  166.8188 C.ar    1  UNL1        0.0372
      7 C         138.8217  140.6171  165.0041 C.3     1  UNL1        0.0491
      8 C         138.7259  141.5924  163.8685 C.3     1  UNL1        0.0954
      9 N         140.0073  142.3703  163.8162 N.pl3   1  UNL1       -0.3089
     10 C         140.3423  143.4527  162.8332 C.3     1  UNL1        0.0755
     11 C         139.6429  144.7775  162.9093 C.3     1  UNL1        0.0368
     12 C         139.9779  145.8598  161.9263 C.3     1  UNL1        0.0703
     13 N         141.0121  145.6174  160.8672 N.3     1  UNL1       -0.2974
     14 C         141.7114  144.2925  160.7912 C.3     1  UNL1        0.0703
     15 C         141.3765  143.2102  161.7742 C.3     1  UNL1        0.0368
     16 H         141.7354  146.3252  160.9945 H       1  UNL1        0.1232
     17 N         142.8398  139.8141  168.4149 N.pl3   1  UNL1       -0.1990
     18 H         143.3813  139.0047  168.2701 H       1  UNL1        0.2985
     19 N         143.3917  139.7332  170.9524 N.2     1  UNL1       -0.0985
     20 C         142.6632  140.3601  169.8008 C.2     1  UNL1        0.3224
     21 H         143.9859  138.9634  170.7987 H       1  UNL1        0.3633
     22 C         141.7579  141.5330  170.0351 C.ar    1  UNL1        0.1114
     23 C         142.1166  142.9763  169.8397 C.ar    1  UNL1        0.0144
     24 C         140.9154  143.8039  170.1898 C.ar    1  UNL1        0.0077
     25 C         139.8144  142.8719  170.6014 C.ar    1  UNL1        0.0357
     26 S         140.3351  141.4685  170.5058 S.2     1  UNL1       -0.0792
@<TRIPOS>BOND
     1    19    20    2
     2    20    17    1
     3    17     1    1
     4     1     2   ar
     5     2     3   ar
     6     3     4   ar
     7     4     5   ar
     8     5     6   ar
     9     5     7    1
    10     7     8    1
    11     8     9    1
    12     9    10    1
    13    10    11    1
    14    11    12    1
    15    12    13    1
    16    13    14    1
    17    14    15    1
    18    20    22    1
    19    22    23   ar
    20    23    24   ar
    21    24    25   ar
    22    25    26   ar
    23     6     1   ar
    24    15    10    1
    25    26    22   ar
    26     9     4    1
    27    19    21    1
    28    17    18    1
    29    13    16    1
@<TRIPOS>MOLECULE
*****
 26 29 0 0 0
SMALL
GASTEIGER

@<TRIPOS>ATOM
      1 C         143.2155  139.5736  164.0049 C.ar    1  UNL1        0.1354
      2 C         143.3415  138.9122  165.3453 C.ar    1  UNL1        0.0414
      3 C         142.6975  139.5309  166.5504 C.ar    1  UNL1        0.0177
      4 C         141.9275  140.8111  166.4151 C.ar    1  UNL1        0.0440
      5 C         141.8015  141.4725  165.0748 C.ar    1  UNL1       -0.0038
      6 C         142.4455  140.8538  163.8697 C.ar    1  UNL1        0.0372
      7 C         140.9862  142.7196  165.2481 C.3     1  UNL1        0.0491
      8 C         140.6083  142.8289  166.6956 C.3     1  UNL1        0.0954
      9 N         141.1900  141.6494  167.4169 N.pl3   1  UNL1       -0.3089
     10 C         141.0575  141.3591  168.8826 C.3     1  UNL1        0.0755
     11 C         141.8246  142.1745  169.8810 C.3     1  UNL1        0.0368
     12 C         141.6920  141.8841  171.3466 C.3     1  UNL1        0.0703
     13 N         140.7925  140.7785  171.8138 N.3     1  UNL1       -0.2974
     14 C         140.0255  139.9631  170.8154 C.3     1  UNL1        0.0703
     15 C         140.1580  140.2534  169.3498 C.3     1  UNL1        0.0368
     16 H         140.1059  141.2015  172.4382 H       1  UNL1        0.1232
     17 N         143.8595  138.9548  162.7997 N.pl3   1  UNL1       -0.1990
     18 H         144.7969  139.1621  162.5815 H       1  UNL1        0.2985
     19 N         143.7873  137.1262  160.9556 N.2     1  UNL1       -0.0985
     20 C         143.0753  138.0203  161.9270 C.2     1  UNL1        0.3224
     21 H         144.7694  137.1526  160.8909 H       1  UNL1        0.3633
     22 C         141.5791  137.9800  162.0255 C.ar    1  UNL1        0.1114
     23 C         140.7852  137.3564  163.1350 C.ar    1  UNL1        0.0144
     24 C         139.3295  137.5471  162.8271 C.ar    1  UNL1        0.0077
     25 C         139.2238  138.2885  161.5274 C.ar    1  UNL1        0.0357
     26 S         140.6142  138.5560  161.0320 S.2     1  UNL1       -0.0792
@<TRIPOS>BOND
     1    19    20    2
     2    20    17    1
     3    17     1    1
     4     1     2   ar
     5     2     3   ar
     6     3     4   ar
     7     4     5   ar
     8     5     6   ar
     9     5     7    1
    10     7     8    1
    11     8     9    1
    12     9    10    1
    13    10    11    1
    14    11    12    1
    15    12    13    1
    16    13    14    1
    17    14    15    1
    18    20    22    1
    19    22    23   ar
    20    23    24   ar
    21    24    25   ar
    22    25    26   ar
    23     6     1   ar
    24    15    10    1
    25    26    22   ar
    26     9     4    1
    27    19    21    1
    28    17    18    1
    29    13    16    1
@<TRIPOS>MOLECULE
*****
 26 29 0 0 0
SMALL
GASTEIGER

@<TRIPOS>ATOM
      1 C         140.6539  144.8854  163.1392 C.ar    1  UNL1        0.1354
      2 C         139.5335  144.7532  164.1277 C.ar    1  UNL1        0.0414
      3 C         139.7283  143.9493  165.3790 C.ar    1  UNL1        0.0177
      4 C         141.0435  143.2776  165.6418 C.ar    1  UNL1        0.0440
      5 C         142.1639  143.4098  164.6533 C.ar    1  UNL1       -0.0038
      6 C         141.9692  144.2137  163.4020 C.ar    1  UNL1        0.0372
      7 C         143.3393  142.6404  165.1792 C.3     1  UNL1        0.0491
      8 C         142.9452  142.0327  166.4928 C.3     1  UNL1        0.0954
      9 N         141.5264  142.4265  166.7787 N.pl3   1  UNL1       -0.3089
     10 C         140.7302  142.0375  167.9889 C.3     1  UNL1        0.0755
     11 C         140.5975  142.9923  169.1381 C.3     1  UNL1        0.0368
     12 C         139.8013  142.6033  170.3483 C.3     1  UNL1        0.0703
     13 N         139.1377  141.2594  170.4094 N.3     1  UNL1       -0.2974
     14 C         139.2704  140.3046  169.2602 C.3     1  UNL1        0.0703
     15 C         140.0666  140.6936  168.0500 C.3     1  UNL1        0.0368
     16 H         138.1402  141.4292  170.5375 H       1  UNL1        0.1232
     17 N         140.4592  145.6893  161.8878 N.pl3   1  UNL1       -0.1990
     18 H         140.1570  146.6245  161.9456 H       1  UNL1        0.2985
     19 N         141.8472  145.5791  159.6944 N.2     1  UNL1       -0.0985
     20 C         140.7249  145.0684  160.5485 C.2     1  UNL1        0.3224
     21 H         142.4094  146.3219  160.0128 H       1  UNL1        0.3633
     22 C         139.8683  143.9366  160.0633 C.ar    1  UNL1        0.1114
     23 C         139.0970  142.9821  160.9259 C.ar    1  UNL1        0.0144
     24 C         138.3846  142.0162  160.0260 C.ar    1  UNL1        0.0077
     25 C         138.7156  142.3739  158.6073 C.ar    1  UNL1        0.0357
     26 S         139.6325  143.5608  158.6304 S.2     1  UNL1       -0.0792
@<TRIPOS>BOND
     1    19    20    2
     2    20    17    1
     3    17     1    1
     4     1     2   ar
     5     2     3   ar
     6     3     4   ar
     7     4     5   ar
     8     5     6   ar
     9     5     7    1
    10     7     8    1
    11     8     9    1
    12     9    10    1
    13    10    11    1
    14    11    12    1
    15    12    13    1
    16    13    14    1
    17    14    15    1
    18    20    22    1
    19    22    23   ar
    20    23    24   ar
    21    24    25   ar
    22    25    26   ar
    23     6     1   ar
    24    15    10    1
    25    26    22   ar
    26     9     4    1
    27    19    21    1
    28    17    18    1
    29    13    16    1
@<TRIPOS>MOLECULE
*****
 26 29 0 0 0
SMALL
GASTEIGER

@<TRIPOS>ATOM
      1 C         139.0381  139.0684  164.3319 C.ar    1  UNL1        0.1354
      2 C         138.5737  139.9298  165.4686 C.ar    1  UNL1        0.0414
      3 C         139.5000  140.2294  166.6097 C.ar    1  UNL1        0.0177
      4 C         140.8908  139.6675  166.6140 C.ar    1  UNL1        0.0440
      5 C         141.3553  138.8061  165.4772 C.ar    1  UNL1       -0.0038
      6 C         140.4289  138.5066  164.3362 C.ar    1  UNL1        0.0372
      7 C         142.7711  138.3960  165.7549 C.3     1  UNL1        0.0491
      8 C         143.1818  139.0039  167.0633 C.3     1  UNL1        0.0954
      9 N         142.0197  139.7898  167.5942 N.pl3   1  UNL1       -0.3089
     10 C         141.9914  140.5622  168.8797 C.3     1  UNL1        0.0755
     11 C         142.8531  141.7792  169.0426 C.3     1  UNL1        0.0368
     12 C         142.8247  142.5516  170.3281 C.3     1  UNL1        0.0703
     13 N         141.9347  142.1071  171.4507 N.3     1  UNL1       -0.2974
     14 C         141.0730  140.8901  171.2879 C.3     1  UNL1        0.0703
     15 C         141.1014  140.1177  170.0024 C.3     1  UNL1        0.0368
     16 H         141.3087  142.8857  171.6562 H       1  UNL1        0.1232
     17 N         138.1117  138.7688  163.1907 N.pl3   1  UNL1       -0.1990
     18 H         137.6497  137.9005  163.1467 H       1  UNL1        0.2985
     19 N         137.0787  141.0203  162.4075 N.2     1  UNL1       -0.0985
     20 C         137.8892  139.7921  162.1168 C.2     1  UNL1        0.3224
     21 H         136.6928  141.1549  163.3032 H       1  UNL1        0.3633
     22 C         138.4772  139.5871  160.7521 C.ar    1  UNL1        0.1114
     23 C         138.1947  140.4191  159.5364 C.ar    1  UNL1        0.0144
     24 C         138.9938  139.8604  158.3965 C.ar    1  UNL1        0.0077
     25 C         139.7701  138.6831  158.9078 C.ar    1  UNL1        0.0357
     26 S         139.4508  138.5142  160.3636 S.2     1  UNL1       -0.0792
@<TRIPOS>BOND
     1    19    20    2
     2    20    17    1
     3    17     1    1
     4     1     2   ar
     5     2     3   ar
     6     3     4   ar
     7     4     5   ar
     8     5     6   ar
     9     5     7    1
    10     7     8    1
    11     8     9    1
    12     9    10    1
    13    10    11    1
    14    11    12    1
    15    12    13    1
    16    13    14    1
    17    14    15    1
    18    20    22    1
    19    22    23   ar
    20    23    24   ar
    21    24    25   ar
    22    25    26   ar
    23     6     1   ar
    24    15    10    1
    25    26    22   ar
    26     9     4    1
    27    19    21    1
    28    17    18    1
    29    13    16    1
@<TRIPOS>MOLECULE
*****
 26 29 0 0 0
SMALL
GASTEIGER

@<TRIPOS>ATOM
      1 C         138.9920  139.3232  164.3014 C.ar    1  UNL1        0.1354
      2 C         138.5670  140.1941  165.4463 C.ar    1  UNL1        0.0414
      3 C         139.5023  140.4329  166.5944 C.ar    1  UNL1        0.0177
      4 C         140.8626  139.8009  166.5975 C.ar    1  UNL1        0.0440
      5 C         141.2877  138.9300  165.4526 C.ar    1  UNL1       -0.0038
      6 C         140.3523  138.6912  164.3045 C.ar    1  UNL1        0.0372
      7 C         142.6795  138.4451  165.7309 C.3     1  UNL1        0.0491
      8 C         143.1147  139.0162  167.0479 C.3     1  UNL1        0.0954
      9 N         141.9919  139.8542  167.5835 N.pl3   1  UNL1       -0.3089
     10 C         141.9972  140.6123  168.8778 C.3     1  UNL1        0.0755
     11 C         142.8418  141.8434  169.0224 C.3     1  UNL1        0.0368
     12 C         142.8471  142.6014  170.3167 C.3     1  UNL1        0.0703
     13 N         142.0078  142.1284  171.4664 N.3     1  UNL1       -0.2974
     14 C         141.1632  140.8973  171.3218 C.3     1  UNL1        0.0703
     15 C         141.1579  140.1393  170.0275 C.3     1  UNL1        0.0368
     16 H         141.3757  142.8930  171.7037 H       1  UNL1        0.1232
     17 N         138.0567  139.0844  163.1532 N.pl3   1  UNL1       -0.1990
     18 H         137.5762  138.2282  163.0796 H       1  UNL1        0.2985
     19 N         136.9521  139.8947  160.9457 N.2     1  UNL1       -0.0985
     20 C         137.8534  140.1499  162.1173 C.2     1  UNL1        0.3224
     21 H         136.4941  139.0278  160.8567 H       1  UNL1        0.3633
     22 C         138.5513  141.4708  162.2529 C.ar    1  UNL1        0.1114
     23 C         139.9909  141.7442  161.9321 C.ar    1  UNL1        0.0144
     24 C         140.2615  143.1925  162.2141 C.ar    1  UNL1        0.0077
     25 C         138.9892  143.8140  162.7091 C.ar    1  UNL1        0.0357
     26 S         137.9323  142.7499  162.7331 S.2     1  UNL1       -0.0792
@<TRIPOS>BOND
     1    19    20    2
     2    20    17    1
     3    17     1    1
     4     1     2   ar
     5     2     3   ar
     6     3     4   ar
     7     4     5   ar
     8     5     6   ar
     9     5     7    1
    10     7     8    1
    11     8     9    1
    12     9    10    1
    13    10    11    1
    14    11    12    1
    15    12    13    1
    16    13    14    1
    17    14    15    1
    18    20    22    1
    19    22    23   ar
    20    23    24   ar
    21    24    25   ar
    22    25    26   ar
    23     6     1   ar
    24    15    10    1
    25    26    22   ar
    26     9     4    1
    27    19    21    1
    28    17    18    1
    29    13    16    1
@<TRIPOS>MOLECULE
*****
 26 29 0 0 0
SMALL
GASTEIGER

@<TRIPOS>ATOM
      1 C         142.3371  139.9629  167.4164 C.ar    1  UNL1        0.1354
      2 C         140.8800  140.1213  167.0974 C.ar    1  UNL1        0.0414
      3 C         140.4597  140.8071  165.8314 C.ar    1  UNL1        0.0177
      4 C         141.4964  141.3345  164.8843 C.ar    1  UNL1        0.0440
      5 C         142.9535  141.1761  165.2032 C.ar    1  UNL1       -0.0038
      6 C         143.3738  140.4903  166.4693 C.ar    1  UNL1        0.0372
      7 C         143.7422  141.7933  164.0865 C.3     1  UNL1        0.0491
      8 C         142.7725  142.3332  163.0774 C.3     1  UNL1        0.0954
      9 N         141.3845  142.0496  163.5704 N.pl3   1  UNL1       -0.3089
     10 C         140.1087  142.4167  162.8723 C.3     1  UNL1        0.0755
     11 C         139.7505  141.7619  161.5711 C.3     1  UNL1        0.0368
     12 C         138.4747  142.1291  160.8730 C.3     1  UNL1        0.0703
     13 N         137.5570  143.1510  161.4760 N.3     1  UNL1       -0.2974
     14 C         137.9152  143.8058  162.7771 C.3     1  UNL1        0.0703
     15 C         139.1910  143.4387  163.4752 C.3     1  UNL1        0.0368
     16 H         136.6566  142.6925  161.6152 H       1  UNL1        0.1232
     17 N         142.7575  139.2770  168.6825 N.pl3   1  UNL1       -0.1990
     18 H         143.0442  138.3354  168.6604 H       1  UNL1        0.2985
     19 N         143.5644  139.5400  171.1380 N.2     1  UNL1       -0.0985
     20 C         142.7411  140.0257  169.9821 C.2     1  UNL1        0.3224
     21 H         144.1157  138.7298  171.0437 H       1  UNL1        0.3633
     22 C         141.9012  141.2603  170.1259 C.ar    1  UNL1        0.1114
     23 C         142.3107  142.6537  169.7508 C.ar    1  UNL1        0.0144
     24 C         141.1670  143.5728  170.0631 C.ar    1  UNL1        0.0077
     25 C         140.0508  142.7473  170.6312 C.ar    1  UNL1        0.0357
     26 S         140.5046  141.3181  170.6700 S.2     1  UNL1       -0.0792
@<TRIPOS>BOND
     1    19    20    2
     2    20    17    1
     3    17     1    1
     4     1     2   ar
     5     2     3   ar
     6     3     4   ar
     7     4     5   ar
     8     5     6   ar
     9     5     7    1
    10     7     8    1
    11     8     9    1
    12     9    10    1
    13    10    11    1
    14    11    12    1
    15    12    13    1
    16    13    14    1
    17    14    15    1
    18    20    22    1
    19    22    23   ar
    20    23    24   ar
    21    24    25   ar
    22    25    26   ar
    23     6     1   ar
    24    15    10    1
    25    26    22   ar
    26     9     4    1
    27    19    21    1
    28    17    18    1
    29    13    16    1
@<TRIPOS>MOLECULE
*****
 26 29 0 0 0
SMALL
GASTEIGER

@<TRIPOS>ATOM
      1 C         142.9456  142.1814  163.8097 C.ar    1  UNL1        0.1354
      2 C         142.2990  142.9729  164.9075 C.ar    1  UNL1        0.0414
      3 C         142.1014  142.3562  166.2605 C.ar    1  UNL1        0.0177
      4 C         142.5504  140.9480  166.5156 C.ar    1  UNL1        0.0440
      5 C         143.1970  140.1564  165.4178 C.ar    1  UNL1       -0.0038
      6 C         143.3947  140.7731  164.0649 C.ar    1  UNL1        0.0372
      7 C         143.5349  138.7999  165.9616 C.3     1  UNL1        0.0491
      8 C         143.0970  138.7531  167.3956 C.3     1  UNL1        0.0954
      9 N         142.4886  140.0807  167.7380 N.pl3   1  UNL1       -0.3089
     10 C         141.9184  140.4722  169.0690 C.3     1  UNL1        0.0755
     11 C         140.6890  139.7880  169.5889 C.3     1  UNL1        0.0368
     12 C         140.1189  140.1797  170.9198 C.3     1  UNL1        0.0703
     13 N         140.7782  141.2555  171.7310 N.3     1  UNL1       -0.2974
     14 C         142.0077  141.9397  171.2111 C.3     1  UNL1        0.0703
     15 C         142.5778  141.5480  169.8801 C.3     1  UNL1        0.0368
     16 H         141.0306  140.8365  172.6260 H       1  UNL1        0.1232
     17 N         143.1433  142.7981  162.4566 N.pl3   1  UNL1       -0.1990
     18 H         143.3507  142.2279  161.6813 H       1  UNL1        0.2985
     19 N         144.1721  145.1753  162.6575 N.2     1  UNL1       -0.0985
     20 C         143.0250  144.2835  162.2849 C.2     1  UNL1        0.3224
     21 H         145.0026  144.7857  163.0148 H       1  UNL1        0.3633
     22 C         141.7596  144.8771  161.7405 C.ar    1  UNL1        0.1114
     23 C         140.7230  145.6197  162.5306 C.ar    1  UNL1        0.0144
     24 C         139.6313  146.0340  161.5889 C.ar    1  UNL1        0.0077
     25 C         139.9933  145.5474  160.2169 C.ar    1  UNL1        0.0357
     26 S         141.3086  144.8325  160.3106 S.2     1  UNL1       -0.0792
@<TRIPOS>BOND
     1    19    20    2
     2    20    17    1
     3    17     1    1
     4     1     2   ar
     5     2     3   ar
     6     3     4   ar
     7     4     5   ar
     8     5     6   ar
     9     5     7    1
    10     7     8    1
    11     8     9    1
    12     9    10    1
    13    10    11    1
    14    11    12    1
    15    12    13    1
    16    13    14    1
    17    14    15    1
    18    20    22    1
    19    22    23   ar
    20    23    24   ar
    21    24    25   ar
    22    25    26   ar
    23     6     1   ar
    24    15    10    1
    25    26    22   ar
    26     9     4    1
    27    19    21    1
    28    17    18    1
    29    13    16    1
