@<TRIPOS>MOLECULE
*****
 37 40 0 0 0
SMALL
GASTEIGER

@<TRIPOS>ATOM
      1 C         143.0950  143.3886  161.8042 C.ar    1  UNL1        0.0008
      2 C         144.0992  144.0769  162.6804 C.ar    1  UNL1       -0.0024
      3 C         143.6516  145.1301  163.6501 C.ar    1  UNL1        0.0028
      4 C         142.1997  145.4950  163.7437 C.ar    1  UNL1        0.0369
      5 C         141.1953  144.8067  162.8675 C.ar    1  UNL1        0.1388
      6 C         141.6430  143.7535  161.8978 C.ar    1  UNL1        0.0343
      7 C         143.5427  142.3354  160.8345 C.3     1  UNL1        0.1239
      8 C         142.0509  140.2102  160.7453 C.2     1  UNL1        0.4100
      9 O         140.9888  140.9859  160.0241 O.2     1  UNL1       -0.2258
     10 N         143.3279  140.8850  161.1505 N.am    1  UNL1       -0.2363
     11 O         141.8361  138.7597  161.0613 O.3     1  UNL1       -0.4101
     12 C         138.4934  137.1822  165.7875 C.3     1  UNL1        0.0310
     13 C         139.3290  137.5766  164.6060 C.ar    1  UNL1       -0.0217
     14 C         138.6684  137.9771  163.3202 C.ar    1  UNL1       -0.0011
     15 C         139.5040  138.3714  162.1387 C.ar    1  UNL1        0.0373
     16 C         141.0004  138.3653  162.2428 C.ar    1  UNL1        0.1500
     17 C         141.6611  137.9648  163.5286 C.ar    1  UNL1        0.0373
     18 C         140.8254  137.5705  164.7102 C.ar    1  UNL1       -0.0011
     19 C         144.3900  140.1092  161.8717 C.3     1  UNL1        0.1388
     20 C         144.9467  140.6243  163.1658 C.2     1  UNL1        0.0706
     21 O         146.1389  141.5347  163.1599 O.co2   1  UNL1       -0.5474
     22 O         144.3113  140.2291  164.4658 O.co2   1  UNL1       -0.5474
     23 O         139.7434  145.1715  162.9611 O.3     1  UNL1       -0.4701
     24 C         138.9531  144.7975  164.1799 C.3     1  UNL1        0.2396
     25 C         139.1111  143.4351  164.7872 C.ar    1  UNL1        0.0656
     26 S         140.0346  143.0730  165.9125 S.2     1  UNL1       -0.0676
     27 C         139.8675  141.6097  166.1967 C.ar    1  UNL1        0.1101
     28 N         138.8407  141.0673  165.2471 N.ar    1  UNL1       -0.2429
     29 C         138.3732  142.1955  164.3760 C.ar    1  UNL1        0.0654
     30 C         137.3479  142.1008  163.2853 C.3     1  UNL1        0.0524
     31 C         140.5988  140.8263  167.2461 C.ar    1  UNL1        0.0239
     32 C         141.9622  140.2728  166.9549 C.ar    1  UNL1        0.0029
     33 C         142.6936  139.4894  168.0043 C.ar    1  UNL1        0.0115
     34 C         142.0614  139.2594  169.3451 C.ar    1  UNL1        0.0577
     35 CL        142.7927  138.4759  170.3946 Cl      1  UNL1       -0.0822
     36 C         140.6980  139.8128  169.6363 C.ar    1  UNL1        0.0115
     37 C         139.9667  140.5963  168.5868 C.ar    1  UNL1        0.0029
@<TRIPOS>UNITY_ATOM_ATTR
21 1
charge -1
@<TRIPOS>BOND
     1    12    13    1
     2    13    14   ar
     3    14    15   ar
     4    15    16   ar
     5    16    11    1
     6    11     8    1
     7     8     9    2
     8     8    10   am
     9    10    19    1
    10    19    20    1
    11    20    21   ar
    12    20    22   ar
    13    10     7    1
    14     7     1    1
    15     1     2   ar
    16     2     3   ar
    17     3     4   ar
    18     4     5   ar
    19     5    23    1
    20    23    24    1
    21    24    25    1
    22    25    26   ar
    23    26    27   ar
    24    27    31    1
    25    31    32   ar
    26    32    33   ar
    27    33    34   ar
    28    34    35    1
    29    34    36   ar
    30    36    37   ar
    31    27    28   ar
    32    28    29   ar
    33    29    30    1
    34     5     6   ar
    35    16    17   ar
    36    17    18   ar
    37    18    13   ar
    38     6     1   ar
    39    29    25   ar
    40    37    31   ar
@<TRIPOS>MOLECULE
*****
 37 40 0 0 0
SMALL
GASTEIGER

@<TRIPOS>ATOM
      1 C         143.5054  143.5149  161.9258 C.ar    1  UNL1        0.0008
      2 C         144.2817  144.3306  162.9167 C.ar    1  UNL1       -0.0024
      3 C         143.5852  145.3744  163.7385 C.ar    1  UNL1        0.0028
      4 C         142.1124  145.6026  163.5694 C.ar    1  UNL1        0.0369
      5 C         141.3360  144.7869  162.5784 C.ar    1  UNL1        0.1388
      6 C         142.0325  143.7431  161.7566 C.ar    1  UNL1        0.0343
      7 C         144.2019  142.4711  161.1040 C.3     1  UNL1        0.1239
      8 C         144.3376  140.2190  162.3924 C.2     1  UNL1        0.4100
      9 O         145.2438  140.8532  163.4055 O.2     1  UNL1       -0.2258
     10 N         143.8166  141.0280  161.2416 N.am    1  UNL1       -0.2363
     11 O         143.9524  138.7759  162.5299 O.3     1  UNL1       -0.4101
     12 C         138.8337  137.2867  165.2833 C.3     1  UNL1        0.0310
     13 C         140.1133  137.6590  164.5949 C.ar    1  UNL1       -0.0217
     14 C         140.2863  137.3801  163.1313 C.ar    1  UNL1       -0.0011
     15 C         141.5660  137.7523  162.4429 C.ar    1  UNL1        0.0373
     16 C         142.6727  138.4036  163.2183 C.ar    1  UNL1        0.1500
     17 C         142.4997  138.6826  164.6819 C.ar    1  UNL1        0.0373
     18 C         141.2200  138.3103  165.3702 C.ar    1  UNL1       -0.0011
     19 C         142.9104  140.3938  160.2284 C.3     1  UNL1        0.1388
     20 C         143.4763  139.4732  159.1881 C.2     1  UNL1        0.0706
     21 O         143.2003  138.0005  159.2597 O.co2   1  UNL1       -0.5474
     22 O         144.3183  140.0253  158.0762 O.co2   1  UNL1       -0.5474
     23 O         139.8631  145.0151  162.4093 O.3     1  UNL1       -0.4701
     24 C         138.9246  144.7283  163.5437 C.3     1  UNL1        0.2396
     25 C         139.1141  143.4984  164.3813 C.ar    1  UNL1        0.0656
     26 S         140.0624  143.3546  165.5346 S.2     1  UNL1       -0.0676
     27 C         139.9230  141.9638  166.0787 C.ar    1  UNL1        0.1101
     28 N         138.8886  141.2479  165.2617 N.ar    1  UNL1       -0.2429
     29 C         138.3886  142.1964  164.2126 C.ar    1  UNL1        0.0654
     30 C         137.3463  141.8956  163.1768 C.3     1  UNL1        0.0524
     31 C         140.6844  141.3896  167.2365 C.ar    1  UNL1        0.0239
     32 C         140.0043  140.4536  168.1912 C.ar    1  UNL1        0.0029
     33 C         140.7656  139.8793  169.3490 C.ar    1  UNL1        0.0115
     34 C         142.2071  140.2412  169.5522 C.ar    1  UNL1        0.0577
     35 CL        142.9685  139.6670  170.7101 Cl      1  UNL1       -0.0822
     36 C         142.8872  141.1772  168.5976 C.ar    1  UNL1        0.0115
     37 C         142.1258  141.7514  167.4397 C.ar    1  UNL1        0.0029
@<TRIPOS>UNITY_ATOM_ATTR
21 1
charge -1
@<TRIPOS>BOND
     1    12    13    1
     2    13    14   ar
     3    14    15   ar
     4    15    16   ar
     5    16    11    1
     6    11     8    1
     7     8     9    2
     8     8    10   am
     9    10    19    1
    10    19    20    1
    11    20    21   ar
    12    20    22   ar
    13    10     7    1
    14     7     1    1
    15     1     2   ar
    16     2     3   ar
    17     3     4   ar
    18     4     5   ar
    19     5    23    1
    20    23    24    1
    21    24    25    1
    22    25    26   ar
    23    26    27   ar
    24    27    31    1
    25    31    32   ar
    26    32    33   ar
    27    33    34   ar
    28    34    35    1
    29    34    36   ar
    30    36    37   ar
    31    27    28   ar
    32    28    29   ar
    33    29    30    1
    34     5     6   ar
    35    16    17   ar
    36    17    18   ar
    37    18    13   ar
    38     6     1   ar
    39    29    25   ar
    40    37    31   ar
@<TRIPOS>MOLECULE
*****
 37 40 0 0 0
SMALL
GASTEIGER

@<TRIPOS>ATOM
      1 C         139.6253  143.7291  159.1250 C.ar    1  UNL1        0.0008
      2 C         139.3141  143.5278  157.6715 C.ar    1  UNL1       -0.0024
      3 C         138.6279  142.2734  157.2182 C.ar    1  UNL1        0.0028
      4 C         138.2529  141.2203  158.2183 C.ar    1  UNL1        0.0369
      5 C         138.5641  141.4215  159.6718 C.ar    1  UNL1        0.1388
      6 C         139.2503  142.6759  160.1252 C.ar    1  UNL1        0.0343
      7 C         140.3115  144.9835  159.5783 C.3     1  UNL1        0.1239
      8 C         142.1660  144.4672  161.3232 C.2     1  UNL1        0.4100
      9 O         142.9574  143.7501  160.2699 O.2     1  UNL1       -0.2258
     10 N         140.8430  145.0840  160.9774 N.am    1  UNL1       -0.2363
     11 O         142.6975  144.5677  162.7222 O.3     1  UNL1       -0.4101
     12 C         143.1120  139.6497  166.1341 C.3     1  UNL1        0.0310
     13 C         143.0084  140.8792  165.2812 C.ar    1  UNL1       -0.0217
     14 C         143.6109  142.1703  165.7501 C.ar    1  UNL1       -0.0011
     15 C         143.5073  143.3998  164.8972 C.ar    1  UNL1        0.0373
     16 C         142.8012  143.3382  163.5752 C.ar    1  UNL1        0.1500
     17 C         142.1987  142.0470  163.1062 C.ar    1  UNL1        0.0373
     18 C         142.3023  140.8175  163.9592 C.ar    1  UNL1       -0.0011
     19 C         140.0517  145.8011  162.0307 C.3     1  UNL1        0.1388
     20 C         139.2033  145.0222  162.9916 C.2     1  UNL1        0.0706
     21 O         139.7298  144.6872  164.3557 O.co2   1  UNL1       -0.5474
     22 O         137.8283  144.5783  162.5886 O.co2   1  UNL1       -0.5474
     23 O         138.1891  140.3684  160.6719 O.3     1  UNL1       -0.4701
     24 C         137.5836  140.7637  161.9861 C.3     1  UNL1        0.2396
     25 C         138.2283  140.3310  163.2694 C.ar    1  UNL1        0.0656
     26 S         138.4919  141.2026  164.4615 S.2     1  UNL1       -0.0676
     27 C         139.1492  140.3610  165.5149 C.ar    1  UNL1        0.1101
     28 N         139.2919  138.9692  164.9739 N.ar    1  UNL1       -0.2429
     29 C         138.7228  138.9507  163.5861 C.ar    1  UNL1        0.0654
     30 C         138.6593  137.7608  162.6750 C.3     1  UNL1        0.0524
     31 C         139.5869  140.8289  166.8710 C.ar    1  UNL1        0.0239
     32 C         139.3807  139.9513  168.0699 C.ar    1  UNL1        0.0029
     33 C         139.8184  140.4192  169.4262 C.ar    1  UNL1        0.0115
     34 C         140.4623  141.7648  169.5836 C.ar    1  UNL1        0.0577
     35 CL        140.9001  142.2328  170.9398 Cl      1  UNL1       -0.0822
     36 C         140.6685  142.6425  168.3847 C.ar    1  UNL1        0.0115
     37 C         140.2308  142.1745  167.0284 C.ar    1  UNL1        0.0029
@<TRIPOS>UNITY_ATOM_ATTR
21 1
charge -1
@<TRIPOS>BOND
     1    12    13    1
     2    13    14   ar
     3    14    15   ar
     4    15    16   ar
     5    16    11    1
     6    11     8    1
     7     8     9    2
     8     8    10   am
     9    10    19    1
    10    19    20    1
    11    20    21   ar
    12    20    22   ar
    13    10     7    1
    14     7     1    1
    15     1     2   ar
    16     2     3   ar
    17     3     4   ar
    18     4     5   ar
    19     5    23    1
    20    23    24    1
    21    24    25    1
    22    25    26   ar
    23    26    27   ar
    24    27    31    1
    25    31    32   ar
    26    32    33   ar
    27    33    34   ar
    28    34    35    1
    29    34    36   ar
    30    36    37   ar
    31    27    28   ar
    32    28    29   ar
    33    29    30    1
    34     5     6   ar
    35    16    17   ar
    36    17    18   ar
    37    18    13   ar
    38     6     1   ar
    39    29    25   ar
    40    37    31   ar
@<TRIPOS>MOLECULE
*****
 37 40 0 0 0
SMALL
GASTEIGER

@<TRIPOS>ATOM
      1 C         141.4404  142.1739  158.8974 C.ar    1  UNL1        0.0008
      2 C         140.4783  143.1024  158.2176 C.ar    1  UNL1       -0.0024
      3 C         140.3418  144.5192  158.6908 C.ar    1  UNL1        0.0028
      4 C         141.1674  145.0076  159.8440 C.ar    1  UNL1        0.0369
      5 C         142.1296  144.0791  160.5239 C.ar    1  UNL1        0.1388
      6 C         142.2661  142.6623  160.0507 C.ar    1  UNL1        0.0343
      7 C         141.5769  140.7571  158.4241 C.3     1  UNL1        0.1239
      8 C         142.5653  138.9507  160.0084 C.2     1  UNL1        0.4100
      9 O         143.9517  139.4128  159.6704 O.2     1  UNL1       -0.2258
     10 N         141.3779  139.6229  159.3852 N.am    1  UNL1       -0.2363
     11 O         142.3663  137.8164  160.9695 O.3     1  UNL1       -0.4101
     12 C         143.0849  138.7131  166.8584 C.3     1  UNL1        0.0310
     13 C         142.9053  138.4889  165.3862 C.ar    1  UNL1       -0.0217
     14 C         141.7349  137.6953  164.8857 C.ar    1  UNL1       -0.0011
     15 C         141.5552  137.4711  163.4135 C.ar    1  UNL1        0.0373
     16 C         142.5459  138.0406  162.4417 C.ar    1  UNL1        0.1500
     17 C         143.7163  138.8342  162.9422 C.ar    1  UNL1        0.0373
     18 C         143.8959  139.0583  164.4145 C.ar    1  UNL1       -0.0011
     19 C         139.9915  139.1607  159.7232 C.3     1  UNL1        0.1388
     20 C         139.3554  139.5797  161.0154 C.2     1  UNL1        0.0706
     21 O         138.6766  138.5609  161.8823 O.co2   1  UNL1       -0.5474
     22 O         139.3980  141.0175  161.4408 O.co2   1  UNL1       -0.5474
     23 O         142.9552  144.5675  161.6771 O.3     1  UNL1       -0.4701
     24 C         142.3031  144.8585  162.9962 C.3     1  UNL1        0.2396
     25 C         142.1032  143.7561  163.9935 C.ar    1  UNL1        0.0656
     26 S         140.8492  142.9549  164.1826 S.2     1  UNL1       -0.0676
     27 C         141.0932  141.9648  165.2827 C.ar    1  UNL1        0.1101
     28 N         142.4979  142.1541  165.7736 N.ar    1  UNL1       -0.2429
     29 C         143.1222  143.2612  164.9768 C.ar    1  UNL1        0.0654
     30 C         144.5199  143.7819  165.1355 C.3     1  UNL1        0.0524
     31 C         140.1058  140.9617  165.8010 C.ar    1  UNL1        0.0239
     32 C         139.1904  140.2497  164.8496 C.ar    1  UNL1        0.0029
     33 C         138.2029  139.2465  165.3678 C.ar    1  UNL1        0.0115
     34 C         138.1309  138.9553  166.8375 C.ar    1  UNL1        0.0577
     35 CL        137.1435  137.9521  167.3558 Cl      1  UNL1       -0.0822
     36 C         139.0463  139.6672  167.7889 C.ar    1  UNL1        0.0115
     37 C         140.0338  140.6704  167.2707 C.ar    1  UNL1        0.0029
@<TRIPOS>UNITY_ATOM_ATTR
21 1
charge -1
@<TRIPOS>BOND
     1    12    13    1
     2    13    14   ar
     3    14    15   ar
     4    15    16   ar
     5    16    11    1
     6    11     8    1
     7     8     9    2
     8     8    10   am
     9    10    19    1
    10    19    20    1
    11    20    21   ar
    12    20    22   ar
    13    10     7    1
    14     7     1    1
    15     1     2   ar
    16     2     3   ar
    17     3     4   ar
    18     4     5   ar
    19     5    23    1
    20    23    24    1
    21    24    25    1
    22    25    26   ar
    23    26    27   ar
    24    27    31    1
    25    31    32   ar
    26    32    33   ar
    27    33    34   ar
    28    34    35    1
    29    34    36   ar
    30    36    37   ar
    31    27    28   ar
    32    28    29   ar
    33    29    30    1
    34     5     6   ar
    35    16    17   ar
    36    17    18   ar
    37    18    13   ar
    38     6     1   ar
    39    29    25   ar
    40    37    31   ar
@<TRIPOS>MOLECULE
*****
 37 40 0 0 0
SMALL
GASTEIGER

@<TRIPOS>ATOM
      1 C         140.7708  142.5282  158.8940 C.ar    1  UNL1        0.0008
      2 C         141.5083  143.5172  158.0408 C.ar    1  UNL1       -0.0024
      3 C         141.5046  144.9722  158.4056 C.ar    1  UNL1        0.0028
      4 C         140.7634  145.4382  159.6235 C.ar    1  UNL1        0.0369
      5 C         140.0259  144.4492  160.4768 C.ar    1  UNL1        0.1388
      6 C         140.0296  142.9942  160.1121 C.ar    1  UNL1        0.0343
      7 C         140.7745  141.0733  158.5293 C.3     1  UNL1        0.1239
      8 C         139.8924  139.0915  159.9592 C.2     1  UNL1        0.4100
      9 O         138.5632  139.1862  159.2705 O.2     1  UNL1       -0.2258
     10 N         140.9980  140.0351  159.5886 N.am    1  UNL1       -0.2363
     11 O         140.1159  138.0533  161.0185 O.3     1  UNL1       -0.4101
     12 C         138.5309  139.1712  166.6963 C.3     1  UNL1        0.0310
     13 C         138.9271  138.8917  165.2769 C.ar    1  UNL1       -0.0217
     14 C         138.5091  139.8292  164.1830 C.ar    1  UNL1       -0.0011
     15 C         138.9053  139.5497  162.7636 C.ar    1  UNL1        0.0373
     16 C         139.7196  138.3328  162.4379 C.ar    1  UNL1        0.1500
     17 C         140.1377  137.3953  163.5318 C.ar    1  UNL1        0.0373
     18 C         139.7414  137.6749  164.9513 C.ar    1  UNL1       -0.0011
     19 C         142.3272  139.9403  160.2773 C.3     1  UNL1        0.1388
     20 C         143.3322  138.9203  159.8310 C.2     1  UNL1        0.0706
     21 O         144.4667  138.5393  160.7354 O.co2   1  UNL1       -0.5474
     22 O         143.2028  138.2810  158.4802 O.co2   1  UNL1       -0.5474
     23 O         139.2848  144.9152  161.6948 O.3     1  UNL1       -0.4701
     24 C         140.0365  145.2404  162.9515 C.3     1  UNL1        0.2396
     25 C         140.2025  144.1980  164.0172 C.ar    1  UNL1        0.0656
     26 S         141.2015  143.0790  164.0080 S.2     1  UNL1       -0.0676
     27 C         141.0152  142.2810  165.2644 C.ar    1  UNL1        0.1101
     28 N         139.9010  142.9067  166.0501 N.ar    1  UNL1       -0.2429
     29 C         139.3988  144.0915  165.2792 C.ar    1  UNL1        0.0654
     30 C         138.2879  145.0087  165.6971 C.3     1  UNL1        0.0524
     31 C         141.8044  141.0699  165.6647 C.ar    1  UNL1        0.0239
     32 C         142.4839  140.2378  164.6180 C.ar    1  UNL1        0.0029
     33 C         143.2732  139.0266  165.0182 C.ar    1  UNL1        0.0115
     34 C         143.3828  138.6476  166.4655 C.ar    1  UNL1        0.0577
     35 CL        144.1720  137.4365  166.8659 Cl      1  UNL1       -0.0822
     36 C         142.7032  139.4798  167.5123 C.ar    1  UNL1        0.0115
     37 C         141.9140  140.6909  167.1119 C.ar    1  UNL1        0.0029
@<TRIPOS>UNITY_ATOM_ATTR
21 1
charge -1
@<TRIPOS>BOND
     1    12    13    1
     2    13    14   ar
     3    14    15   ar
     4    15    16   ar
     5    16    11    1
     6    11     8    1
     7     8     9    2
     8     8    10   am
     9    10    19    1
    10    19    20    1
    11    20    21   ar
    12    20    22   ar
    13    10     7    1
    14     7     1    1
    15     1     2   ar
    16     2     3   ar
    17     3     4   ar
    18     4     5   ar
    19     5    23    1
    20    23    24    1
    21    24    25    1
    22    25    26   ar
    23    26    27   ar
    24    27    31    1
    25    31    32   ar
    26    32    33   ar
    27    33    34   ar
    28    34    35    1
    29    34    36   ar
    30    36    37   ar
    31    27    28   ar
    32    28    29   ar
    33    29    30    1
    34     5     6   ar
    35    16    17   ar
    36    17    18   ar
    37    18    13   ar
    38     6     1   ar
    39    29    25   ar
    40    37    31   ar
@<TRIPOS>MOLECULE
*****
 37 40 0 0 0
SMALL
GASTEIGER

@<TRIPOS>ATOM
      1 C         141.1612  144.4817  161.6539 C.ar    1  UNL1        0.0008
      2 C         141.0681  145.4583  162.7885 C.ar    1  UNL1       -0.0024
      3 C         142.2477  145.6764  163.6891 C.ar    1  UNL1        0.0028
      4 C         143.5204  144.9179  163.4549 C.ar    1  UNL1        0.0369
      5 C         143.6135  143.9412  162.3202 C.ar    1  UNL1        0.1388
      6 C         142.4339  143.7231  161.4197 C.ar    1  UNL1        0.0343
      7 C         139.9816  144.2636  160.7533 C.3     1  UNL1        0.1239
      8 C         138.0527  142.9687  161.9164 C.2     1  UNL1        0.4100
      9 O         137.7883  144.1537  162.7972 O.2     1  UNL1       -0.2258
     10 N         139.1494  143.0237  160.8944 N.am    1  UNL1       -0.2363
     11 O         137.2205  141.7287  162.0575 O.3     1  UNL1       -0.4101
     12 C         139.1077  137.2308  165.5513 C.3     1  UNL1        0.0310
     13 C         138.6359  138.3553  164.6779 C.ar    1  UNL1       -0.0217
     14 C         138.5847  138.1779  163.1893 C.ar    1  UNL1       -0.0011
     15 C         138.1129  139.3024  162.3158 C.ar    1  UNL1        0.0373
     16 C         137.6923  140.6043  162.9310 C.ar    1  UNL1        0.1500
     17 C         137.7435  140.7816  164.4196 C.ar    1  UNL1        0.0373
     18 C         138.2153  139.6570  165.2930 C.ar    1  UNL1       -0.0011
     19 C         139.4138  141.8387  160.0136 C.3     1  UNL1        0.1388
     20 C         138.4774  141.5182  158.8864 C.2     1  UNL1        0.0706
     21 O         137.9541  140.1223  158.7200 O.co2   1  UNL1       -0.5474
     22 O         138.0644  142.5936  157.9257 O.co2   1  UNL1       -0.5474
     23 O         144.8862  143.1827  162.0861 O.3     1  UNL1       -0.4701
     24 C         145.2818  142.0758  163.0179 C.3     1  UNL1        0.2396
     25 C         144.2291  141.3123  163.7653 C.ar    1  UNL1        0.0656
     26 S         143.8424  141.5176  165.2001 S.2     1  UNL1       -0.0676
     27 C         142.7524  140.5416  165.5307 C.ar    1  UNL1        0.1101
     28 N         142.4654  139.7330  164.3003 N.ar    1  UNL1       -0.2429
     29 C         143.3780  140.2093  163.2093 C.ar    1  UNL1        0.0654
     30 C         143.4303  139.6762  161.8082 C.3     1  UNL1        0.0524
     31 C         142.0694  140.3993  166.8585 C.ar    1  UNL1        0.0239
     32 C         142.6419  139.4868  167.9024 C.ar    1  UNL1        0.0029
     33 C         141.9590  139.3444  169.2303 C.ar    1  UNL1        0.0115
     34 C         140.7034  140.1145  169.5143 C.ar    1  UNL1        0.0577
     35 CL        140.0204  139.9721  170.8421 Cl      1  UNL1       -0.0822
     36 C         140.1309  141.0269  168.4704 C.ar    1  UNL1        0.0115
     37 C         140.8139  141.1693  167.1425 C.ar    1  UNL1        0.0029
@<TRIPOS>UNITY_ATOM_ATTR
21 1
charge -1
@<TRIPOS>BOND
     1    12    13    1
     2    13    14   ar
     3    14    15   ar
     4    15    16   ar
     5    16    11    1
     6    11     8    1
     7     8     9    2
     8     8    10   am
     9    10    19    1
    10    19    20    1
    11    20    21   ar
    12    20    22   ar
    13    10     7    1
    14     7     1    1
    15     1     2   ar
    16     2     3   ar
    17     3     4   ar
    18     4     5   ar
    19     5    23    1
    20    23    24    1
    21    24    25    1
    22    25    26   ar
    23    26    27   ar
    24    27    31    1
    25    31    32   ar
    26    32    33   ar
    27    33    34   ar
    28    34    35    1
    29    34    36   ar
    30    36    37   ar
    31    27    28   ar
    32    28    29   ar
    33    29    30    1
    34     5     6   ar
    35    16    17   ar
    36    17    18   ar
    37    18    13   ar
    38     6     1   ar
    39    29    25   ar
    40    37    31   ar
@<TRIPOS>MOLECULE
*****
 37 40 0 0 0
SMALL
GASTEIGER

@<TRIPOS>ATOM
      1 C         140.6651  143.8377  160.8384 C.ar    1  UNL1        0.0008
      2 C         140.6440  145.2437  161.3607 C.ar    1  UNL1       -0.0024
      3 C         139.5237  145.6969  162.2492 C.ar    1  UNL1        0.0028
      4 C         138.4246  144.7443  162.6155 C.ar    1  UNL1        0.0369
      5 C         138.4456  143.3383  162.0932 C.ar    1  UNL1        0.1388
      6 C         139.5659  142.8850  161.2046 C.ar    1  UNL1        0.0343
      7 C         141.7854  143.3845  159.9498 C.3     1  UNL1        0.1239
      8 C         142.7644  141.0020  160.2897 C.2     1  UNL1        0.4100
      9 O         141.6014  140.4177  159.5441 O.2     1  UNL1       -0.2258
     10 N         142.8564  142.4855  160.4926 N.am    1  UNL1       -0.2363
     11 O         143.8354  140.1030  160.8325 O.3     1  UNL1       -0.4101
     12 C         143.5952  138.2553  166.5358 C.3     1  UNL1        0.0310
     13 C         143.6552  138.7172  165.1100 C.ar    1  UNL1       -0.0217
     14 C         142.6026  138.2799  164.1350 C.ar    1  UNL1       -0.0011
     15 C         142.6626  138.7418  162.7092 C.ar    1  UNL1        0.0373
     16 C         143.7754  139.6411  162.2583 C.ar    1  UNL1        0.1500
     17 C         144.8280  140.0784  163.2334 C.ar    1  UNL1        0.0373
     18 C         144.7679  139.6164  164.6593 C.ar    1  UNL1       -0.0011
     19 C         144.0194  143.0698  161.2383 C.3     1  UNL1        0.1388
     20 C         143.7957  143.7759  162.5426 C.2     1  UNL1        0.0706
     21 O         144.2253  145.2038  162.7058 O.co2   1  UNL1       -0.5474
     22 O         143.1423  143.0542  163.6838 O.co2   1  UNL1       -0.5474
     23 O         137.3465  142.3856  162.4594 O.3     1  UNL1       -0.4701
     24 C         137.6187  140.9115  162.5139 C.3     1  UNL1        0.2396
     25 C         138.3258  140.3227  163.6985 C.ar    1  UNL1        0.0656
     26 S         138.7217  141.0584  164.9444 S.2     1  UNL1       -0.0676
     27 C         139.4017  140.0852  165.8611 C.ar    1  UNL1        0.1101
     28 N         139.4263  138.7480  165.1818 N.ar    1  UNL1       -0.2429
     29 C         138.7613  138.8948  163.8452 C.ar    1  UNL1        0.0654
     30 C         138.5661  137.8050  162.8331 C.3     1  UNL1        0.0524
     31 C         139.9594  140.3948  167.2186 C.ar    1  UNL1        0.0239
     32 C         139.2268  139.9500  168.4497 C.ar    1  UNL1        0.0029
     33 C         139.7844  140.2596  169.8074 C.ar    1  UNL1        0.0115
     34 C         141.0747  141.0141  169.9339 C.ar    1  UNL1        0.0577
     35 CL        141.6323  141.3237  171.2916 Cl      1  UNL1       -0.0822
     36 C         141.8073  141.4589  168.7029 C.ar    1  UNL1        0.0115
     37 C         141.2496  141.1493  167.3453 C.ar    1  UNL1        0.0029
@<TRIPOS>UNITY_ATOM_ATTR
21 1
charge -1
@<TRIPOS>BOND
     1    12    13    1
     2    13    14   ar
     3    14    15   ar
     4    15    16   ar
     5    16    11    1
     6    11     8    1
     7     8     9    2
     8     8    10   am
     9    10    19    1
    10    19    20    1
    11    20    21   ar
    12    20    22   ar
    13    10     7    1
    14     7     1    1
    15     1     2   ar
    16     2     3   ar
    17     3     4   ar
    18     4     5   ar
    19     5    23    1
    20    23    24    1
    21    24    25    1
    22    25    26   ar
    23    26    27   ar
    24    27    31    1
    25    31    32   ar
    26    32    33   ar
    27    33    34   ar
    28    34    35    1
    29    34    36   ar
    30    36    37   ar
    31    27    28   ar
    32    28    29   ar
    33    29    30    1
    34     5     6   ar
    35    16    17   ar
    36    17    18   ar
    37    18    13   ar
    38     6     1   ar
    39    29    25   ar
    40    37    31   ar
@<TRIPOS>MOLECULE
*****
 37 40 0 0 0
SMALL
GASTEIGER

@<TRIPOS>ATOM
      1 C         142.1339  141.8783  159.9666 C.ar    1  UNL1        0.0008
      2 C         142.5414  143.0349  159.1028 C.ar    1  UNL1       -0.0024
      3 C         141.5347  144.0812  158.7264 C.ar    1  UNL1        0.0028
      4 C         140.1204  143.9709  159.2137 C.ar    1  UNL1        0.0369
      5 C         139.7128  142.8143  160.0775 C.ar    1  UNL1        0.1388
      6 C         140.7195  141.7679  160.4539 C.ar    1  UNL1        0.0343
      7 C         143.1406  140.8320  160.3430 C.3     1  UNL1        0.1239
      8 C         142.6494  138.8719  161.9761 C.2     1  UNL1        0.4100
      9 O         142.1405  138.0462  160.8320 O.2     1  UNL1       -0.2258
     10 N         143.1495  140.2649  161.7316 N.am    1  UNL1       -0.2363
     11 O         142.6583  138.3049  163.3647 O.3     1  UNL1       -0.4101
     12 C         137.7406  138.6641  166.7833 C.3     1  UNL1        0.0310
     13 C         138.9700  138.5743  165.9287 C.ar    1  UNL1       -0.0217
     14 C         139.0080  137.6266  164.7666 C.ar    1  UNL1       -0.0011
     15 C         140.2374  137.5368  163.9120 C.ar    1  UNL1        0.0373
     16 C         141.4289  138.3947  164.2194 C.ar    1  UNL1        0.1500
     17 C         141.3909  139.3424  165.3814 C.ar    1  UNL1        0.0373
     18 C         140.1614  139.4322  166.2361 C.ar    1  UNL1       -0.0011
     19 C         143.6584  141.0907  162.8757 C.3     1  UNL1        0.1388
     20 C         144.7898  142.0520  162.6619 C.2     1  UNL1        0.0706
     21 O         144.5191  143.4156  162.0985 O.co2   1  UNL1       -0.5474
     22 O         146.1920  141.6498  163.0115 O.co2   1  UNL1       -0.5474
     23 O         138.2985  142.7040  160.5648 O.3     1  UNL1       -0.4701
     24 C         137.9056  143.3234  161.8733 C.3     1  UNL1        0.2396
     25 C         138.9561  143.6572  162.8905 C.ar    1  UNL1        0.0656
     26 S         139.3877  142.7841  164.0314 S.2     1  UNL1       -0.0676
     27 C         140.4579  143.5100  164.7915 C.ar    1  UNL1        0.1101
     28 N         140.6878  144.8317  164.1205 N.ar    1  UNL1       -0.2429
     29 C         139.7596  144.9227  162.9456 C.ar    1  UNL1        0.0654
     30 C         139.6535  146.0765  161.9930 C.3     1  UNL1        0.0524
     31 C         141.1727  143.0032  166.0089 C.ar    1  UNL1        0.0239
     32 C         142.6330  142.6683  165.9361 C.ar    1  UNL1        0.0029
     33 C         143.3480  142.1614  167.1535 C.ar    1  UNL1        0.0115
     34 C         142.6024  141.9895  168.4438 C.ar    1  UNL1        0.0577
     35 CL        143.3173  141.4827  169.6612 Cl      1  UNL1       -0.0822
     36 C         141.1421  142.3244  168.5166 C.ar    1  UNL1        0.0115
     37 C         140.4273  142.8312  167.2991 C.ar    1  UNL1        0.0029
@<TRIPOS>UNITY_ATOM_ATTR
21 1
charge -1
@<TRIPOS>BOND
     1    12    13    1
     2    13    14   ar
     3    14    15   ar
     4    15    16   ar
     5    16    11    1
     6    11     8    1
     7     8     9    2
     8     8    10   am
     9    10    19    1
    10    19    20    1
    11    20    21   ar
    12    20    22   ar
    13    10     7    1
    14     7     1    1
    15     1     2   ar
    16     2     3   ar
    17     3     4   ar
    18     4     5   ar
    19     5    23    1
    20    23    24    1
    21    24    25    1
    22    25    26   ar
    23    26    27   ar
    24    27    31    1
    25    31    32   ar
    26    32    33   ar
    27    33    34   ar
    28    34    35    1
    29    34    36   ar
    30    36    37   ar
    31    27    28   ar
    32    28    29   ar
    33    29    30    1
    34     5     6   ar
    35    16    17   ar
    36    17    18   ar
    37    18    13   ar
    38     6     1   ar
    39    29    25   ar
    40    37    31   ar
@<TRIPOS>MOLECULE
*****
 37 40 0 0 0
SMALL
GASTEIGER

@<TRIPOS>ATOM
      1 C         141.5086  144.2775  160.3727 C.ar    1  UNL1        0.0008
      2 C         141.6981  144.1397  158.8912 C.ar    1  UNL1       -0.0024
      3 C         142.8611  143.3600  158.3531 C.ar    1  UNL1        0.0028
      4 C         143.8346  142.7182  159.2966 C.ar    1  UNL1        0.0369
      5 C         143.6451  142.8559  160.7783 C.ar    1  UNL1        0.1388
      6 C         142.4821  143.6356  161.3163 C.ar    1  UNL1        0.0343
      7 C         140.3455  145.0572  160.9108 C.3     1  UNL1        0.1239
      8 C         138.4408  143.3736  161.4468 C.2     1  UNL1        0.4100
      9 O         138.4050  142.9556  160.0067 O.2     1  UNL1       -0.2258
     10 N         139.4111  144.4244  161.8988 N.am    1  UNL1       -0.2363
     11 O         137.5064  142.7408  162.4349 O.3     1  UNL1       -0.4101
     12 C         139.0230  137.5994  165.1305 C.3     1  UNL1        0.0310
     13 C         138.6438  138.8848  164.4566 C.ar    1  UNL1       -0.0217
     14 C         138.4309  140.1251  165.2728 C.ar    1  UNL1       -0.0011
     15 C         138.0517  141.4104  164.5989 C.ar    1  UNL1        0.0373
     16 C         137.8855  141.4555  163.1088 C.ar    1  UNL1        0.1500
     17 C         138.0985  140.2151  162.2926 C.ar    1  UNL1        0.0373
     18 C         138.4777  138.9297  162.9665 C.ar    1  UNL1       -0.0011
     19 C         139.4469  144.8424  163.3390 C.3     1  UNL1        0.1388
     20 C         140.6911  144.6326  164.1501 C.2     1  UNL1        0.0706
     21 O         140.7743  143.4851  165.1126 O.co2   1  UNL1       -0.5474
     22 O         141.8521  145.5702  163.9988 O.co2   1  UNL1       -0.5474
     23 O         144.6186  142.2141  161.7218 O.3     1  UNL1       -0.4701
     24 C         144.4748  140.7635  162.0756 C.3     1  UNL1        0.2396
     25 C         143.6795  140.3611  163.2821 C.ar    1  UNL1        0.0656
     26 S         143.5763  141.1291  164.5665 S.2     1  UNL1       -0.0676
     27 C         142.6808  140.3627  165.4942 C.ar    1  UNL1        0.1101
     28 N         142.2306  139.1209  164.7832 N.ar    1  UNL1       -0.2429
     29 C         142.8479  139.1199  163.4160 C.ar    1  UNL1        0.0654
     30 C         142.6654  138.0634  162.3671 C.3     1  UNL1        0.0524
     31 C         142.3020  140.7669  166.8881 C.ar    1  UNL1        0.0239
     32 C         142.9240  141.9809  167.5120 C.ar    1  UNL1        0.0029
     33 C         142.5453  142.3853  168.9060 C.ar    1  UNL1        0.0115
     34 C         141.5445  141.5756  169.6760 C.ar    1  UNL1        0.0577
     35 CL        141.1657  141.9799  171.0699 Cl      1  UNL1       -0.0822
     36 C         140.9225  140.3616  169.0520 C.ar    1  UNL1        0.0115
     37 C         141.3013  139.9573  167.6580 C.ar    1  UNL1        0.0029
@<TRIPOS>UNITY_ATOM_ATTR
21 1
charge -1
@<TRIPOS>BOND
     1    12    13    1
     2    13    14   ar
     3    14    15   ar
     4    15    16   ar
     5    16    11    1
     6    11     8    1
     7     8     9    2
     8     8    10   am
     9    10    19    1
    10    19    20    1
    11    20    21   ar
    12    20    22   ar
    13    10     7    1
    14     7     1    1
    15     1     2   ar
    16     2     3   ar
    17     3     4   ar
    18     4     5   ar
    19     5    23    1
    20    23    24    1
    21    24    25    1
    22    25    26   ar
    23    26    27   ar
    24    27    31    1
    25    31    32   ar
    26    32    33   ar
    27    33    34   ar
    28    34    35    1
    29    34    36   ar
    30    36    37   ar
    31    27    28   ar
    32    28    29   ar
    33    29    30    1
    34     5     6   ar
    35    16    17   ar
    36    17    18   ar
    37    18    13   ar
    38     6     1   ar
    39    29    25   ar
    40    37    31   ar
