@<TRIPOS>MOLECULE
*****
 45 52 0 0 0
SMALL
GASTEIGER

@<TRIPOS>ATOM
      1 C         141.3489  138.9912  162.1877 C.ar    1  UNL1        0.0176
      2 C         142.4836  138.0496  161.9125 C.ar    1  UNL1        0.0012
      3 C         142.8924  137.7606  160.4985 C.ar    1  UNL1       -0.0029
      4 C         142.1664  138.4132  159.3597 C.ar    1  UNL1       -0.0061
      5 C         141.0317  139.3549  159.6348 C.ar    1  UNL1       -0.0029
      6 C         140.6229  139.6438  161.0488 C.ar    1  UNL1        0.0012
      7 C         137.2328  139.5872  170.7756 C.3     1  UNL1        0.0742
      8 C         138.3296  139.9785  169.8301 C.ar    1  UNL1        0.1475
      9 N         139.4656  140.9095  170.1345 N.ar    1  UNL1       -0.1330
     10 N         140.3211  141.0139  168.9068 N.ar    1  UNL1       -0.1287
     11 C         139.7139  140.1473  167.8437 C.ar    1  UNL1        0.1715
     12 C         140.1226  139.8583  166.4297 C.ar    1  UNL1        0.0540
     13 C         141.3534  140.4982  165.8590 C.ar    1  UNL1        0.0061
     14 C         141.7622  140.2091  164.4450 C.ar    1  UNL1        0.0178
     15 C         140.9401  139.2802  163.6017 C.ar    1  UNL1        0.0812
     16 N         139.7094  138.6403  164.1723 N.ar    1  UNL1       -0.2452
     17 C         139.3005  138.9293  165.5863 C.ar    1  UNL1        0.0857
     18 C         138.0698  138.2895  166.1569 C.ar    1  UNL1        0.0383
     19 C         137.6610  138.5785  167.5710 C.ar    1  UNL1        0.0841
     20 N         138.4831  139.5074  168.4143 N.ar    1  UNL1       -0.2758
     21 C         142.9930  140.8491  163.8745 C.ar    1  UNL1        0.0015
     22 C         142.8666  141.9987  162.9192 C.ar    1  UNL1        0.0000
     23 C         144.0974  142.6385  162.3487 C.ar    1  UNL1        0.0000
     24 C         145.4548  142.1289  162.7334 C.ar    1  UNL1        0.0000
     25 C         145.5812  140.9793  163.6887 C.ar    1  UNL1        0.0000
     26 C         144.3503  140.3394  164.2592 C.ar    1  UNL1        0.0000
     27 C         142.5752  138.1243  157.9457 C.3     1  UNL1        0.0991
     28 N         143.5564  139.0209  157.2505 N.3     1  UNL1       -0.2689
     29 C         144.0512  138.6706  155.8785 C.3     1  UNL1        0.0728
     30 C         145.0323  139.5673  155.1835 C.3     1  UNL1        0.0249
     31 C         145.5189  140.8144  155.8604 C.3     1  UNL1        0.0613
     32 C         145.0241  141.1647  157.2324 C.3     1  UNL1        0.0249
     33 C         144.0429  140.2680  157.9275 C.3     1  UNL1        0.0728
     34 C         146.5000  141.7110  155.1654 C.ar    1  UNL1        0.1396
     35 N         146.1814  143.0134  154.4928 N.ar    1  UNL1       -0.1335
     36 N         147.4566  143.5701  153.9326 N.ar    1  UNL1       -0.1277
     37 C         148.5635  142.6118  154.2589 C.ar    1  UNL1        0.1807
     38 N         147.9723  141.4629  155.0208 N.ar    1  UNL1       -0.3234
     39 H         148.4643  140.6828  155.3654 H       1  UNL1        0.1686
     40 C         150.0079  142.7739  153.8884 C.ar    1  UNL1        0.1169
     41 C         151.0098  141.7379  154.3043 C.ar    1  UNL1        0.0223
     42 C         152.4542  141.9001  153.9337 C.ar    1  UNL1        0.0032
     43 C         152.8968  143.0983  153.1473 C.ar    1  UNL1        0.0207
     44 C         151.8950  144.1343  152.7314 C.ar    1  UNL1        0.0989
     45 N         150.4504  143.9721  153.1019 N.ar    1  UNL1       -0.2407
@<TRIPOS>BOND
     1     7     8    1
     2     8     9   ar
     3     9    10   ar
     4    10    11   ar
     5    11    12   ar
     6    12    13   ar
     7    13    14   ar
     8    14    21    1
     9    21    22   ar
    10    22    23   ar
    11    23    24   ar
    12    24    25   ar
    13    25    26   ar
    14    14    15   ar
    15    15     1    1
    16     1     2   ar
    17     2     3   ar
    18     3     4   ar
    19     4    27    1
    20    27    28    1
    21    28    29    1
    22    29    30    1
    23    30    31    1
    24    31    34    1
    25    34    35   ar
    26    35    36   ar
    27    36    37   ar
    28    37    40    1
    29    40    41   ar
    30    41    42   ar
    31    42    43   ar
    32    43    44   ar
    33    44    45   ar
    34    37    38   ar
    35    31    32    1
    36    32    33    1
    37     4     5   ar
    38     5     6   ar
    39    15    16   ar
    40    16    17   ar
    41    17    18   ar
    42    18    19   ar
    43    19    20   ar
    44    20     8   ar
    45    20    11   ar
    46    17    12   ar
    47    26    21   ar
    48     6     1   ar
    49    33    28    1
    50    38    34   ar
    51    45    40   ar
    52    38    39    1
@<TRIPOS>MOLECULE
*****
 45 52 0 0 0
SMALL
GASTEIGER

@<TRIPOS>ATOM
      1 C         141.4604  139.2276  162.4228 C.ar    1  UNL1        0.0176
      2 C         141.0676  140.2173  161.3664 C.ar    1  UNL1        0.0012
      3 C         141.5438  140.0370  159.9555 C.ar    1  UNL1       -0.0029
      4 C         142.4129  138.8669  159.6010 C.ar    1  UNL1       -0.0061
      5 C         142.8057  137.8772  160.6575 C.ar    1  UNL1       -0.0029
      6 C         142.3294  138.0575  162.0684 C.ar    1  UNL1        0.0012
      7 C         136.9039  139.2233  170.8067 C.3     1  UNL1        0.0742
      8 C         138.0613  139.6569  169.9568 C.ar    1  UNL1        0.1475
      9 N         139.2059  140.5195  170.3995 N.ar    1  UNL1       -0.1330
     10 N         140.1294  140.6999  169.2313 N.ar    1  UNL1       -0.1287
     11 C         139.5556  139.9488  168.0666 C.ar    1  UNL1        0.1715
     12 C         140.0318  139.7684  166.6557 C.ar    1  UNL1        0.0540
     13 C         141.3099  140.4130  166.2073 C.ar    1  UNL1        0.0061
     14 C         141.7860  140.2327  164.7964 C.ar    1  UNL1        0.0178
     15 C         140.9841  139.4078  163.8338 C.ar    1  UNL1        0.0812
     16 N         139.7061  138.7633  164.2821 N.ar    1  UNL1       -0.2452
     17 C         139.2298  138.9436  165.6931 C.ar    1  UNL1        0.0857
     18 C         137.9518  138.2991  166.1414 C.ar    1  UNL1        0.0383
     19 C         137.4756  138.4793  167.5524 C.ar    1  UNL1        0.0841
     20 N         138.2775  139.3042  168.5150 N.ar    1  UNL1       -0.2758
     21 C         143.0642  140.8773  164.3481 C.ar    1  UNL1        0.0015
     22 C         144.3451  140.0971  164.3687 C.ar    1  UNL1        0.0000
     23 C         145.6231  140.7418  163.9204 C.ar    1  UNL1        0.0000
     24 C         145.6203  142.1666  163.4514 C.ar    1  UNL1        0.0000
     25 C         144.3393  142.9468  163.4308 C.ar    1  UNL1        0.0000
     26 C         143.0612  142.3021  163.8791 C.ar    1  UNL1        0.0000
     27 C         142.8892  138.6866  158.1901 C.3     1  UNL1        0.0991
     28 N         142.5427  137.4373  157.4355 N.3     1  UNL1       -0.2689
     29 C         141.3856  137.4342  156.4810 C.3     1  UNL1        0.0728
     30 C         141.0392  136.1850  155.7265 C.3     1  UNL1        0.0249
     31 C         141.8499  134.9388  155.9265 C.3     1  UNL1        0.0613
     32 C         143.0069  134.9419  156.8810 C.3     1  UNL1        0.0249
     33 C         143.3533  136.1912  157.6355 C.3     1  UNL1        0.0728
     34 C         141.5035  133.6896  155.1719 C.ar    1  UNL1        0.1396
     35 N         141.0543  133.6188  153.7425 N.ar    1  UNL1       -0.1335
     36 N         140.8186  132.1773  153.4014 N.ar    1  UNL1       -0.1277
     37 C         141.1221  131.3570  154.6201 C.ar    1  UNL1        0.1807
     38 N         141.5454  132.2917  155.7143 N.ar    1  UNL1       -0.3234
     39 H         141.8051  132.0330  156.6280 H       1  UNL1        0.1686
     40 C         141.0202  129.8643  154.7260 C.ar    1  UNL1        0.1169
     41 C         139.7081  129.2246  155.0712 C.ar    1  UNL1        0.0223
     42 C         139.6063  127.7318  155.1771 C.ar    1  UNL1        0.0032
     43 C         140.8166  126.8786  154.9377 C.ar    1  UNL1        0.0207
     44 C         142.1288  127.5183  154.5925 C.ar    1  UNL1        0.0989
     45 N         142.2306  129.0112  154.4867 N.ar    1  UNL1       -0.2407
@<TRIPOS>BOND
     1     7     8    1
     2     8     9   ar
     3     9    10   ar
     4    10    11   ar
     5    11    12   ar
     6    12    13   ar
     7    13    14   ar
     8    14    21    1
     9    21    22   ar
    10    22    23   ar
    11    23    24   ar
    12    24    25   ar
    13    25    26   ar
    14    14    15   ar
    15    15     1    1
    16     1     2   ar
    17     2     3   ar
    18     3     4   ar
    19     4    27    1
    20    27    28    1
    21    28    29    1
    22    29    30    1
    23    30    31    1
    24    31    34    1
    25    34    35   ar
    26    35    36   ar
    27    36    37   ar
    28    37    40    1
    29    40    41   ar
    30    41    42   ar
    31    42    43   ar
    32    43    44   ar
    33    44    45   ar
    34    37    38   ar
    35    31    32    1
    36    32    33    1
    37     4     5   ar
    38     5     6   ar
    39    15    16   ar
    40    16    17   ar
    41    17    18   ar
    42    18    19   ar
    43    19    20   ar
    44    20     8   ar
    45    20    11   ar
    46    17    12   ar
    47    26    21   ar
    48     6     1   ar
    49    33    28    1
    50    38    34   ar
    51    45    40   ar
    52    38    39    1
@<TRIPOS>MOLECULE
*****
 45 52 0 0 0
SMALL
GASTEIGER

@<TRIPOS>ATOM
      1 C         141.2314  139.0693  161.4323 C.ar    1  UNL1        0.0176
      2 C         142.4293  138.2272  161.1071 C.ar    1  UNL1        0.0012
      3 C         142.7464  137.8938  159.6793 C.ar    1  UNL1       -0.0029
      4 C         141.8656  138.4027  158.5769 C.ar    1  UNL1       -0.0061
      5 C         140.6677  139.2448  158.9023 C.ar    1  UNL1       -0.0029
      6 C         140.3506  139.5782  160.3300 C.ar    1  UNL1        0.0012
      7 C         137.8448  139.7418  170.3278 C.3     1  UNL1        0.0742
      8 C         138.7932  140.2007  169.2601 C.ar    1  UNL1        0.1475
      9 N         139.8195  141.2858  169.3993 N.ar    1  UNL1       -0.1330
     10 N         140.5424  141.4108  168.0910 N.ar    1  UNL1       -0.1287
     11 C         139.9630  140.4029  167.1431 C.ar    1  UNL1        0.1715
     12 C         140.2801  140.0695  165.7155 C.ar    1  UNL1        0.0540
     13 C         141.3611  140.8174  164.9929 C.ar    1  UNL1        0.0061
     14 C         141.6782  140.4840  163.5652 C.ar    1  UNL1        0.0178
     15 C         140.9143  139.4027  162.8601 C.ar    1  UNL1        0.0812
     16 N         139.8333  138.6549  163.5826 N.ar    1  UNL1       -0.2452
     17 C         139.5161  138.9882  165.0103 C.ar    1  UNL1        0.0857
     18 C         138.4352  138.2404  165.7328 C.ar    1  UNL1        0.0383
     19 C         138.1180  138.5738  167.1605 C.ar    1  UNL1        0.0841
     20 N         138.8820  139.6550  167.8657 N.ar    1  UNL1       -0.2758
     21 C         142.7593  141.2319  162.8427 C.ar    1  UNL1        0.0015
     22 C         142.3995  142.2926  161.8451 C.ar    1  UNL1        0.0000
     23 C         143.4805  143.0405  161.1227 C.ar    1  UNL1        0.0000
     24 C         144.9215  142.7276  161.3979 C.ar    1  UNL1        0.0000
     25 C         145.2814  141.6669  162.3955 C.ar    1  UNL1        0.0000
     26 C         144.2003  140.9190  163.1180 C.ar    1  UNL1        0.0000
     27 C         142.1827  138.0694  157.1492 C.3     1  UNL1        0.0991
     28 N         142.1462  136.6430  156.6862 N.3     1  UNL1       -0.2689
     29 C         143.1406  135.6553  157.2206 C.3     1  UNL1        0.0728
     30 C         143.1041  134.2291  156.7576 C.3     1  UNL1        0.0249
     31 C         142.0732  133.7905  155.7601 C.3     1  UNL1        0.0613
     32 C         141.0788  134.7782  155.2257 C.3     1  UNL1        0.0249
     33 C         141.1154  136.2045  155.6888 C.3     1  UNL1        0.0728
     34 C         142.0367  132.3643  155.2971 C.ar    1  UNL1        0.1396
     35 N         143.2134  131.5567  154.8353 N.ar    1  UNL1       -0.1335
     36 N         142.7211  130.1885  154.4674 N.ar    1  UNL1       -0.1277
     37 C         141.2400  130.1503  154.7016 C.ar    1  UNL1        0.1807
     38 N         140.8170  131.4950  155.2144 N.ar    1  UNL1       -0.3234
     39 H         139.8999  131.7604  155.4546 H       1  UNL1        0.1686
     40 C         140.3399  128.9741  154.4648 C.ar    1  UNL1        0.1169
     41 C         139.7194  128.2582  155.6278 C.ar    1  UNL1        0.0223
     42 C         138.8192  127.0819  155.3908 C.ar    1  UNL1        0.0032
     43 C         138.5396  126.6215  153.9909 C.ar    1  UNL1        0.0207
     44 C         139.1600  127.3374  152.8279 C.ar    1  UNL1        0.0989
     45 N         140.0602  128.5137  153.0648 N.ar    1  UNL1       -0.2407
@<TRIPOS>BOND
     1     7     8    1
     2     8     9   ar
     3     9    10   ar
     4    10    11   ar
     5    11    12   ar
     6    12    13   ar
     7    13    14   ar
     8    14    21    1
     9    21    22   ar
    10    22    23   ar
    11    23    24   ar
    12    24    25   ar
    13    25    26   ar
    14    14    15   ar
    15    15     1    1
    16     1     2   ar
    17     2     3   ar
    18     3     4   ar
    19     4    27    1
    20    27    28    1
    21    28    29    1
    22    29    30    1
    23    30    31    1
    24    31    34    1
    25    34    35   ar
    26    35    36   ar
    27    36    37   ar
    28    37    40    1
    29    40    41   ar
    30    41    42   ar
    31    42    43   ar
    32    43    44   ar
    33    44    45   ar
    34    37    38   ar
    35    31    32    1
    36    32    33    1
    37     4     5   ar
    38     5     6   ar
    39    15    16   ar
    40    16    17   ar
    41    17    18   ar
    42    18    19   ar
    43    19    20   ar
    44    20     8   ar
    45    20    11   ar
    46    17    12   ar
    47    26    21   ar
    48     6     1   ar
    49    33    28    1
    50    38    34   ar
    51    45    40   ar
    52    38    39    1
@<TRIPOS>MOLECULE
*****
 45 52 0 0 0
SMALL
GASTEIGER

@<TRIPOS>ATOM
      1 C         143.4062  136.8916  156.2916 C.ar    1  UNL1        0.0176
      2 C         144.3834  137.5174  155.3412 C.ar    1  UNL1        0.0012
      3 C         144.7481  138.9653  155.4858 C.ar    1  UNL1       -0.0029
      4 C         144.1354  139.7872  156.5809 C.ar    1  UNL1       -0.0061
      5 C         143.1582  139.1613  157.5313 C.ar    1  UNL1       -0.0029
      6 C         142.7936  137.7135  157.3866 C.ar    1  UNL1        0.0012
      7 C         142.6971  127.3787  156.5210 C.3     1  UNL1        0.0742
      8 C         142.1818  128.7096  156.0592 C.ar    1  UNL1        0.1475
      9 N         140.9750  128.9372  155.1980 N.ar    1  UNL1       -0.1330
     10 N         140.8301  130.4148  154.9841 N.ar    1  UNL1       -0.1287
     11 C         141.9475  131.1004  155.7131 C.ar    1  UNL1        0.1715
     12 C         142.3122  132.5482  155.8577 C.ar    1  UNL1        0.0540
     13 C         141.4768  133.6021  155.1932 C.ar    1  UNL1        0.0061
     14 C         141.8415  135.0498  155.3379 C.ar    1  UNL1        0.0178
     15 C         143.0416  135.4437  156.1470 C.ar    1  UNL1        0.0812
     16 N         143.8769  134.3899  156.8114 N.ar    1  UNL1       -0.2452
     17 C         143.5122  132.9421  156.6668 C.ar    1  UNL1        0.0857
     18 C         144.3476  131.8883  157.3313 C.ar    1  UNL1        0.0383
     19 C         143.9829  130.4404  157.1867 C.ar    1  UNL1        0.0841
     20 N         142.7828  130.0465  156.3776 N.ar    1  UNL1       -0.2758
     21 C         141.0061  136.1037  154.6733 C.ar    1  UNL1        0.0015
     22 C         139.7979  136.6538  155.3716 C.ar    1  UNL1        0.0000
     23 C         138.9625  137.7076  154.7071 C.ar    1  UNL1        0.0000
     24 C         139.3353  138.2113  153.3442 C.ar    1  UNL1        0.0000
     25 C         140.5435  137.6611  152.6459 C.ar    1  UNL1        0.0000
     26 C         141.3789  136.6073  153.3105 C.ar    1  UNL1        0.0000
     27 C         144.5000  141.2350  156.7255 C.3     1  UNL1        0.0991
     28 N         143.4807  142.2974  156.4383 N.3     1  UNL1       -0.2689
     29 C         142.8124  142.3524  155.0965 C.3     1  UNL1        0.0728
     30 C         141.7932  143.4147  154.8093 C.3     1  UNL1        0.0249
     31 C         141.4422  144.4221  155.8639 C.3     1  UNL1        0.0613
     32 C         142.1106  144.3671  157.2057 C.3     1  UNL1        0.0249
     33 C         143.1298  143.3047  157.4928 C.3     1  UNL1        0.0728
     34 C         140.4230  145.4844  155.5767 C.ar    1  UNL1        0.1396
     35 N         138.9394  145.2820  155.4880 N.ar    1  UNL1       -0.1335
     36 N         138.3079  146.6082  155.1843 N.ar    1  UNL1       -0.1277
     37 C         139.4012  147.6304  155.0852 C.ar    1  UNL1        0.1807
     38 N         140.7084  146.9359  155.3278 N.ar    1  UNL1       -0.3234
     39 H         141.5976  147.3585  155.3242 H       1  UNL1        0.1686
     40 C         139.2193  149.0906  154.7947 C.ar    1  UNL1        0.1169
     41 C         138.6279  149.9946  155.8355 C.ar    1  UNL1        0.0223
     42 C         138.4460  151.4549  155.5448 C.ar    1  UNL1        0.0032
     43 C         138.8555  152.0113  154.2134 C.ar    1  UNL1        0.0207
     44 C         139.4469  151.1074  153.1726 C.ar    1  UNL1        0.0989
     45 N         139.6288  149.6471  153.4632 N.ar    1  UNL1       -0.2407
@<TRIPOS>BOND
     1     7     8    1
     2     8     9   ar
     3     9    10   ar
     4    10    11   ar
     5    11    12   ar
     6    12    13   ar
     7    13    14   ar
     8    14    21    1
     9    21    22   ar
    10    22    23   ar
    11    23    24   ar
    12    24    25   ar
    13    25    26   ar
    14    14    15   ar
    15    15     1    1
    16     1     2   ar
    17     2     3   ar
    18     3     4   ar
    19     4    27    1
    20    27    28    1
    21    28    29    1
    22    29    30    1
    23    30    31    1
    24    31    34    1
    25    34    35   ar
    26    35    36   ar
    27    36    37   ar
    28    37    40    1
    29    40    41   ar
    30    41    42   ar
    31    42    43   ar
    32    43    44   ar
    33    44    45   ar
    34    37    38   ar
    35    31    32    1
    36    32    33    1
    37     4     5   ar
    38     5     6   ar
    39    15    16   ar
    40    16    17   ar
    41    17    18   ar
    42    18    19   ar
    43    19    20   ar
    44    20     8   ar
    45    20    11   ar
    46    17    12   ar
    47    26    21   ar
    48     6     1   ar
    49    33    28    1
    50    38    34   ar
    51    45    40   ar
    52    38    39    1
@<TRIPOS>MOLECULE
*****
 45 52 0 0 0
SMALL
GASTEIGER

@<TRIPOS>ATOM
      1 C         138.8583  145.4033  155.6941 C.ar    1  UNL1        0.0176
      2 C         139.6779  144.7077  156.7401 C.ar    1  UNL1        0.0012
      3 C         139.2551  143.3628  157.2527 C.ar    1  UNL1       -0.0029
      4 C         138.0125  142.7137  156.7191 C.ar    1  UNL1       -0.0061
      5 C         137.1929  143.4093  155.6730 C.ar    1  UNL1       -0.0029
      6 C         137.6158  144.7541  155.1605 C.ar    1  UNL1        0.0012
      7 C         140.1609  154.6439  153.7030 C.3     1  UNL1        0.0742
      8 C         140.5163  153.2038  153.4800 C.ar    1  UNL1        0.1475
      9 N         141.5557  152.6892  152.5288 N.ar    1  UNL1       -0.1330
     10 N         141.5765  151.1927  152.6300 N.ar    1  UNL1       -0.1287
     11 C         140.5498  150.7824  153.6437 C.ar    1  UNL1        0.1715
     12 C         140.1269  149.4377  154.1563 C.ar    1  UNL1        0.0540
     13 C         140.7821  148.1948  153.6310 C.ar    1  UNL1        0.0061
     14 C         140.3593  146.8500  154.1436 C.ar    1  UNL1        0.0178
     15 C         139.2812  146.7481  155.1815 C.ar    1  UNL1        0.0812
     16 N         138.6260  147.9909  155.7068 N.ar    1  UNL1       -0.2452
     17 C         139.0488  149.3358  155.1942 C.ar    1  UNL1        0.0857
     18 C         138.3937  150.5786  155.7196 C.ar    1  UNL1        0.0383
     19 C         138.8165  151.9234  155.2070 C.ar    1  UNL1        0.0841
     20 N         139.8946  152.0253  154.1690 N.ar    1  UNL1       -0.2758
     21 C         141.0145  145.6072  153.6182 C.ar    1  UNL1        0.0015
     22 C         140.3496  144.8086  152.5364 C.ar    1  UNL1        0.0000
     23 C         141.0049  143.5659  152.0111 C.ar    1  UNL1        0.0000
     24 C         142.3252  143.1216  152.5675 C.ar    1  UNL1        0.0000
     25 C         142.9901  143.9201  153.6492 C.ar    1  UNL1        0.0000
     26 C         142.3348  145.1629  154.1745 C.ar    1  UNL1        0.0000
     27 C         137.5896  141.3689  157.2316 C.3     1  UNL1        0.0991
     28 N         138.3488  140.1398  156.8278 N.3     1  UNL1       -0.2689
     29 C         139.1976  139.4186  157.8325 C.3     1  UNL1        0.0728
     30 C         139.9567  138.1896  157.4286 C.3     1  UNL1        0.0249
     31 C         139.8670  137.6816  156.0201 C.3     1  UNL1        0.0613
     32 C         139.0182  138.4028  155.0154 C.3     1  UNL1        0.0249
     33 C         138.2591  139.6319  155.4193 C.3     1  UNL1        0.0728
     34 C         140.6261  136.4526  155.6162 C.ar    1  UNL1        0.1396
     35 N         140.5199  135.7439  154.2985 N.ar    1  UNL1       -0.1335
     36 N         141.4528  134.5697  154.3270 N.ar    1  UNL1       -0.1277
     37 C         142.1357  134.5527  155.6625 C.ar    1  UNL1        0.1807
     38 N         141.6248  135.7163  156.4592 N.ar    1  UNL1       -0.3234
     39 H         141.8971  135.9550  157.3747 H       1  UNL1        0.1686
     40 C         143.1512  133.5484  156.1207 C.ar    1  UNL1        0.1169
     41 C         143.4975  132.3794  155.2467 C.ar    1  UNL1        0.0223
     42 C         144.5130  131.3751  155.7051 C.ar    1  UNL1        0.0032
     43 C         145.1823  131.5397  157.0374 C.ar    1  UNL1        0.0207
     44 C         144.8361  132.7086  157.9113 C.ar    1  UNL1        0.0989
     45 N         143.8205  133.7130  157.4530 N.ar    1  UNL1       -0.2407
@<TRIPOS>BOND
     1     7     8    1
     2     8     9   ar
     3     9    10   ar
     4    10    11   ar
     5    11    12   ar
     6    12    13   ar
     7    13    14   ar
     8    14    21    1
     9    21    22   ar
    10    22    23   ar
    11    23    24   ar
    12    24    25   ar
    13    25    26   ar
    14    14    15   ar
    15    15     1    1
    16     1     2   ar
    17     2     3   ar
    18     3     4   ar
    19     4    27    1
    20    27    28    1
    21    28    29    1
    22    29    30    1
    23    30    31    1
    24    31    34    1
    25    34    35   ar
    26    35    36   ar
    27    36    37   ar
    28    37    40    1
    29    40    41   ar
    30    41    42   ar
    31    42    43   ar
    32    43    44   ar
    33    44    45   ar
    34    37    38   ar
    35    31    32    1
    36    32    33    1
    37     4     5   ar
    38     5     6   ar
    39    15    16   ar
    40    16    17   ar
    41    17    18   ar
    42    18    19   ar
    43    19    20   ar
    44    20     8   ar
    45    20    11   ar
    46    17    12   ar
    47    26    21   ar
    48     6     1   ar
    49    33    28    1
    50    38    34   ar
    51    45    40   ar
    52    38    39    1
@<TRIPOS>MOLECULE
*****
 45 52 0 0 0
SMALL
GASTEIGER

@<TRIPOS>ATOM
      1 C         142.1326  139.3874  160.8879 C.ar    1  UNL1        0.0176
      2 C         140.8940  138.7664  160.3136 C.ar    1  UNL1        0.0012
      3 C         140.8746  138.3168  158.8826 C.ar    1  UNL1       -0.0029
      4 C         142.0940  138.4882  158.0261 C.ar    1  UNL1       -0.0061
      5 C         143.3328  139.1092  158.6005 C.ar    1  UNL1       -0.0029
      6 C         143.3521  139.5588  160.0314 C.ar    1  UNL1        0.0012
      7 C         142.9174  140.3922  170.3443 C.3     1  UNL1        0.0742
      8 C         142.5681  140.9619  169.0015 C.ar    1  UNL1        0.1475
      9 N         142.0722  142.3523  168.7355 N.ar    1  UNL1       -0.1330
     10 N         141.8509  142.4910  167.2584 N.ar    1  UNL1       -0.1287
     11 C         142.2100  141.1862  166.6114 C.ar    1  UNL1        0.1715
     12 C         142.1907  140.7365  165.1806 C.ar    1  UNL1        0.0540
     13 C         141.7474  141.6815  164.1033 C.ar    1  UNL1        0.0061
     14 C         141.7281  141.2318  162.6724 C.ar    1  UNL1        0.0178
     15 C         142.1520  139.8371  162.3188 C.ar    1  UNL1        0.0812
     16 N         142.5952  138.8921  163.3960 N.ar    1  UNL1       -0.2452
     17 C         142.6146  139.3418  164.8270 C.ar    1  UNL1        0.0857
     18 C         143.0578  138.3968  165.9042 C.ar    1  UNL1        0.0383
     19 C         143.0771  138.8465  167.3351 C.ar    1  UNL1        0.0841
     20 N         142.6532  140.2412  167.6887 N.ar    1  UNL1       -0.2758
     21 C         141.2849  142.1769  161.5952 C.ar    1  UNL1        0.0015
     22 C         139.8381  142.2440  161.2049 C.ar    1  UNL1        0.0000
     23 C         139.3949  143.1890  160.1277 C.ar    1  UNL1        0.0000
     24 C         140.3985  144.0671  159.4408 C.ar    1  UNL1        0.0000
     25 C         141.8453  144.0001  159.8311 C.ar    1  UNL1        0.0000
     26 C         142.2885  143.0550  160.9083 C.ar    1  UNL1        0.0000
     27 C         142.0747  138.0385  156.5952 C.3     1  UNL1        0.0991
     28 N         142.0324  136.5749  156.2696 N.3     1  UNL1       -0.2689
     29 C         141.0753  136.0644  155.2335 C.3     1  UNL1        0.0728
     30 C         141.0330  134.6009  154.9079 C.3     1  UNL1        0.0249
     31 C         141.9478  133.6476  155.6183 C.3     1  UNL1        0.0613
     32 C         142.9048  134.1581  156.6544 C.3     1  UNL1        0.0249
     33 C         142.9471  135.6218  156.9800 C.3     1  UNL1        0.0728
     34 C         141.9054  132.1841  155.2927 C.ar    1  UNL1        0.1396
     35 N         143.0936  131.2906  155.0928 N.ar    1  UNL1       -0.1335
     36 N         142.5900  129.9113  154.7863 N.ar    1  UNL1       -0.1277
     37 C         141.0906  129.9523  154.7969 C.ar    1  UNL1        0.1807
     38 N         140.6675  131.3569  155.1099 N.ar    1  UNL1       -0.3234
     39 H         139.7402  131.6793  155.1826 H       1  UNL1        0.1686
     40 C         140.1751  128.7924  154.5397 C.ar    1  UNL1        0.1169
     41 C         139.5832  128.0343  155.6909 C.ar    1  UNL1        0.0223
     42 C         138.6676  126.8744  155.4337 C.ar    1  UNL1        0.0032
     43 C         138.3438  126.4724  154.0252 C.ar    1  UNL1        0.0207
     44 C         138.9357  127.2304  152.8741 C.ar    1  UNL1        0.0989
     45 N         139.8513  128.3904  153.1313 N.ar    1  UNL1       -0.2407
@<TRIPOS>BOND
     1     7     8    1
     2     8     9   ar
     3     9    10   ar
     4    10    11   ar
     5    11    12   ar
     6    12    13   ar
     7    13    14   ar
     8    14    21    1
     9    21    22   ar
    10    22    23   ar
    11    23    24   ar
    12    24    25   ar
    13    25    26   ar
    14    14    15   ar
    15    15     1    1
    16     1     2   ar
    17     2     3   ar
    18     3     4   ar
    19     4    27    1
    20    27    28    1
    21    28    29    1
    22    29    30    1
    23    30    31    1
    24    31    34    1
    25    34    35   ar
    26    35    36   ar
    27    36    37   ar
    28    37    40    1
    29    40    41   ar
    30    41    42   ar
    31    42    43   ar
    32    43    44   ar
    33    44    45   ar
    34    37    38   ar
    35    31    32    1
    36    32    33    1
    37     4     5   ar
    38     5     6   ar
    39    15    16   ar
    40    16    17   ar
    41    17    18   ar
    42    18    19   ar
    43    19    20   ar
    44    20     8   ar
    45    20    11   ar
    46    17    12   ar
    47    26    21   ar
    48     6     1   ar
    49    33    28    1
    50    38    34   ar
    51    45    40   ar
    52    38    39    1
@<TRIPOS>MOLECULE
*****
 45 52 0 0 0
SMALL
GASTEIGER

@<TRIPOS>ATOM
      1 C         140.9252  140.2254  162.0708 C.ar    1  UNL1        0.0176
      2 C         142.0225  139.3039  161.6276 C.ar    1  UNL1        0.0012
      3 C         142.3791  139.2069  160.1738 C.ar    1  UNL1       -0.0029
      4 C         141.6384  140.0315  159.1633 C.ar    1  UNL1       -0.0061
      5 C         140.5410  140.9531  159.6065 C.ar    1  UNL1       -0.0029
      6 C         140.1844  141.0501  161.0603 C.ar    1  UNL1        0.0012
      7 C         137.3789  139.3632  170.8873 C.3     1  UNL1        0.0742
      8 C         138.3134  140.0301  169.9218 C.ar    1  UNL1        0.1475
      9 N         139.2711  141.1385  170.2445 N.ar    1  UNL1       -0.1330
     10 N         140.0038  141.4991  168.9863 N.ar    1  UNL1       -0.1287
     11 C         139.4989  140.6135  167.8859 C.ar    1  UNL1        0.1715
     12 C         139.8555  140.5164  166.4321 C.ar    1  UNL1        0.0540
     13 C         140.9002  141.4243  165.8539 C.ar    1  UNL1        0.0061
     14 C         141.2567  141.3273  164.4002 C.ar    1  UNL1        0.0178
     15 C         140.5686  140.3224  163.5246 C.ar    1  UNL1        0.0812
     16 N         139.5239  139.4145  164.1028 N.ar    1  UNL1       -0.2452
     17 C         139.1673  139.5115  165.5566 C.ar    1  UNL1        0.0857
     18 C         138.1227  138.6037  166.1348 C.ar    1  UNL1        0.0383
     19 C         137.7660  138.7007  167.5886 C.ar    1  UNL1        0.0841
     20 N         138.4542  139.7056  168.4641 N.ar    1  UNL1       -0.2758
     21 C         142.3015  142.2352  163.8220 C.ar    1  UNL1        0.0015
     22 C         143.7394  141.8086  163.8043 C.ar    1  UNL1        0.0000
     23 C         144.7840  142.7165  163.2261 C.ar    1  UNL1        0.0000
     24 C         144.3908  144.0512  162.6657 C.ar    1  UNL1        0.0000
     25 C         142.9529  144.4779  162.6835 C.ar    1  UNL1        0.0000
     26 C         141.9082  143.5699  163.2616 C.ar    1  UNL1        0.0000
     27 C         141.9949  139.9346  157.7095 C.3     1  UNL1        0.0991
     28 N         141.9314  138.6100  157.0085 N.3     1  UNL1       -0.2689
     29 C         140.6077  137.9383  156.7927 C.3     1  UNL1        0.0728
     30 C         140.5442  136.6138  156.0917 C.3     1  UNL1        0.0249
     31 C         141.8045  135.9608  155.6063 C.3     1  UNL1        0.0613
     32 C         143.1282  136.6326  155.8221 C.3     1  UNL1        0.0249
     33 C         143.1916  137.9571  156.5231 C.3     1  UNL1        0.0728
     34 C         141.7410  134.6363  154.9053 C.ar    1  UNL1        0.1396
     35 N         141.9655  134.4021  153.4408 N.ar    1  UNL1       -0.1335
     36 N         141.8051  132.9345  153.1760 N.ar    1  UNL1       -0.1277
     37 C         141.4814  132.2615  154.4769 C.ar    1  UNL1        0.1807
     38 N         141.4418  133.3132  155.5457 N.ar    1  UNL1       -0.3234
     39 H         141.2527  133.1618  156.4999 H       1  UNL1        0.1686
     40 C         141.2398  130.7944  154.6744 C.ar    1  UNL1        0.1169
     41 C         139.8369  130.2686  154.7494 C.ar    1  UNL1        0.0223
     42 C         139.5954  128.8014  154.9469 C.ar    1  UNL1        0.0032
     43 C         140.7567  127.8599  155.0695 C.ar    1  UNL1        0.0207
     44 C         142.1596  128.3856  154.9946 C.ar    1  UNL1        0.0989
     45 N         142.4012  129.8529  154.7970 N.ar    1  UNL1       -0.2407
@<TRIPOS>BOND
     1     7     8    1
     2     8     9   ar
     3     9    10   ar
     4    10    11   ar
     5    11    12   ar
     6    12    13   ar
     7    13    14   ar
     8    14    21    1
     9    21    22   ar
    10    22    23   ar
    11    23    24   ar
    12    24    25   ar
    13    25    26   ar
    14    14    15   ar
    15    15     1    1
    16     1     2   ar
    17     2     3   ar
    18     3     4   ar
    19     4    27    1
    20    27    28    1
    21    28    29    1
    22    29    30    1
    23    30    31    1
    24    31    34    1
    25    34    35   ar
    26    35    36   ar
    27    36    37   ar
    28    37    40    1
    29    40    41   ar
    30    41    42   ar
    31    42    43   ar
    32    43    44   ar
    33    44    45   ar
    34    37    38   ar
    35    31    32    1
    36    32    33    1
    37     4     5   ar
    38     5     6   ar
    39    15    16   ar
    40    16    17   ar
    41    17    18   ar
    42    18    19   ar
    43    19    20   ar
    44    20     8   ar
    45    20    11   ar
    46    17    12   ar
    47    26    21   ar
    48     6     1   ar
    49    33    28    1
    50    38    34   ar
    51    45    40   ar
    52    38    39    1
@<TRIPOS>MOLECULE
*****
 45 52 0 0 0
SMALL
GASTEIGER

@<TRIPOS>ATOM
      1 C         142.9441  137.0443  156.6475 C.ar    1  UNL1        0.0176
      2 C         142.3001  137.3051  157.9768 C.ar    1  UNL1        0.0012
      3 C         142.3301  138.6838  158.5672 C.ar    1  UNL1       -0.0029
      4 C         143.0041  139.8016  157.8281 C.ar    1  UNL1       -0.0061
      5 C         143.6481  139.5407  156.4988 C.ar    1  UNL1       -0.0029
      6 C         143.6181  138.1621  155.9085 C.ar    1  UNL1        0.0012
      7 C         144.3051  127.9463  154.1129 C.3     1  UNL1        0.0742
      8 C         143.5471  129.2336  153.9777 C.ar    1  UNL1        0.1475
      9 N         142.3842  129.4801  153.0630 N.ar    1  UNL1       -0.1330
     10 N         141.9372  130.8993  153.2534 N.ar    1  UNL1       -0.1287
     11 C         142.8240  131.5299  154.2859 C.ar    1  UNL1        0.1715
     12 C         142.8540  132.9085  154.8763 C.ar    1  UNL1        0.0540
     13 C         141.8591  133.9379  154.4287 C.ar    1  UNL1        0.0061
     14 C         141.8891  135.3165  155.0191 C.ar    1  UNL1        0.0178
     15 C         142.9141  135.6656  156.0571 C.ar    1  UNL1        0.0812
     16 N         143.9089  134.6363  156.5048 N.ar    1  UNL1       -0.2452
     17 C         143.8790  133.2576  155.9144 C.ar    1  UNL1        0.0857
     18 C         144.8738  132.2282  156.3620 C.ar    1  UNL1        0.0383
     19 C         144.8438  130.8496  155.7716 C.ar    1  UNL1        0.0841
     20 N         143.8189  130.5004  154.7336 N.ar    1  UNL1       -0.2758
     21 C         140.8941  136.3459  154.5714 C.ar    1  UNL1        0.0015
     22 C         139.6607  136.6010  155.3860 C.ar    1  UNL1        0.0000
     23 C         138.6659  137.6304  154.9382 C.ar    1  UNL1        0.0000
     24 C         138.9043  138.4047  153.6758 C.ar    1  UNL1        0.0000
     25 C         140.1377  138.1496  152.8612 C.ar    1  UNL1        0.0000
     26 C         141.1326  137.1202  153.3090 C.ar    1  UNL1        0.0000
     27 C         143.0341  141.1802  158.4185 C.3     1  UNL1        0.0991
     28 N         142.9614  141.3609  159.9058 N.3     1  UNL1       -0.2689
     29 C         141.6942  141.8517  160.5407 C.3     1  UNL1        0.0728
     30 C         141.6216  142.0323  162.0280 C.3     1  UNL1        0.0249
     31 C         142.8163  141.7222  162.8804 C.3     1  UNL1        0.0613
     32 C         144.0835  141.2314  162.2455 C.3     1  UNL1        0.0249
     33 C         144.1561  141.0507  160.7582 C.3     1  UNL1        0.0728
     34 C         142.7437  141.9028  164.3677 C.ar    1  UNL1        0.1396
     35 N         143.8370  142.4357  165.2456 N.ar    1  UNL1       -0.1335
     36 N         143.3341  142.4446  166.6587 N.ar    1  UNL1       -0.1277
     37 C         141.9299  141.9171  166.6542 C.ar    1  UNL1        0.1807
     38 N         141.5650  141.5823  165.2383 N.ar    1  UNL1       -0.3234
     39 H         140.7032  141.2165  164.9339 H       1  UNL1        0.1686
     40 C         141.0458  141.7533  167.8548 C.ar    1  UNL1        0.1169
     41 C         140.2191  140.5117  168.0137 C.ar    1  UNL1        0.0223
     42 C         139.3350  140.3479  169.2144 C.ar    1  UNL1        0.0032
     43 C         139.2775  141.4256  170.2561 C.ar    1  UNL1        0.0207
     44 C         140.1040  142.6672  170.0971 C.ar    1  UNL1        0.0989
     45 N         140.9882  142.8311  168.8965 N.ar    1  UNL1       -0.2407
@<TRIPOS>BOND
     1     7     8    1
     2     8     9   ar
     3     9    10   ar
     4    10    11   ar
     5    11    12   ar
     6    12    13   ar
     7    13    14   ar
     8    14    21    1
     9    21    22   ar
    10    22    23   ar
    11    23    24   ar
    12    24    25   ar
    13    25    26   ar
    14    14    15   ar
    15    15     1    1
    16     1     2   ar
    17     2     3   ar
    18     3     4   ar
    19     4    27    1
    20    27    28    1
    21    28    29    1
    22    29    30    1
    23    30    31    1
    24    31    34    1
    25    34    35   ar
    26    35    36   ar
    27    36    37   ar
    28    37    40    1
    29    40    41   ar
    30    41    42   ar
    31    42    43   ar
    32    43    44   ar
    33    44    45   ar
    34    37    38   ar
    35    31    32    1
    36    32    33    1
    37     4     5   ar
    38     5     6   ar
    39    15    16   ar
    40    16    17   ar
    41    17    18   ar
    42    18    19   ar
    43    19    20   ar
    44    20     8   ar
    45    20    11   ar
    46    17    12   ar
    47    26    21   ar
    48     6     1   ar
    49    33    28    1
    50    38    34   ar
    51    45    40   ar
    52    38    39    1
@<TRIPOS>MOLECULE
*****
 45 52 0 0 0
SMALL
GASTEIGER

@<TRIPOS>ATOM
      1 C         139.3001  143.6715  156.9353 C.ar    1  UNL1        0.0176
      2 C         140.3657  143.1790  157.8690 C.ar    1  UNL1        0.0012
      3 C         140.1870  141.8762  158.5906 C.ar    1  UNL1       -0.0029
      4 C         138.9427  141.0659  158.3785 C.ar    1  UNL1       -0.0061
      5 C         137.8770  141.5584  157.4447 C.ar    1  UNL1       -0.0029
      6 C         138.0557  142.8612  156.7231 C.ar    1  UNL1        0.0012
      7 C         139.3664  152.7050  153.8627 C.3     1  UNL1        0.0742
      8 C         139.7606  151.2687  153.6845 C.ar    1  UNL1        0.1475
      9 N         140.5625  150.7092  152.5471 N.ar    1  UNL1       -0.1330
     10 N         140.7197  149.2345  152.7720 N.ar    1  UNL1       -0.1287
     11 C         140.0148  148.8826  154.0485 C.ar    1  UNL1        0.1715
     12 C         139.8361  147.5798  154.7702 C.ar    1  UNL1        0.0540
     13 C         140.4288  146.3226  154.2063 C.ar    1  UNL1        0.0061
     14 C         140.2502  145.0198  154.9280 C.ar    1  UNL1        0.0178
     15 C         139.4787  144.9743  156.2136 C.ar    1  UNL1        0.0812
     16 N         138.8860  146.2315  156.7775 N.ar    1  UNL1       -0.2452
     17 C         139.0647  147.5343  156.0558 C.ar    1  UNL1        0.0857
     18 C         138.4720  148.7915  156.6197 C.ar    1  UNL1        0.0383
     19 C         138.6507  150.0944  155.8980 C.ar    1  UNL1        0.0841
     20 N         139.4221  150.1399  154.6124 N.ar    1  UNL1       -0.2758
     21 C         140.8429  143.7626  154.3640 C.ar    1  UNL1        0.0015
     22 C         142.2711  143.4096  154.6568 C.ar    1  UNL1        0.0000
     23 C         142.8637  142.1525  154.0928 C.ar    1  UNL1        0.0000
     24 C         142.0283  141.2481  153.2359 C.ar    1  UNL1        0.0000
     25 C         140.6001  141.6011  152.9430 C.ar    1  UNL1        0.0000
     26 C         140.0075  142.8583  153.5071 C.ar    1  UNL1        0.0000
     27 C         138.7639  139.7631  159.1001 C.3     1  UNL1        0.0991
     28 N         138.7837  139.7274  160.5996 N.3     1  UNL1       -0.2689
     29 C         139.8372  138.9369  161.3173 C.3     1  UNL1        0.0728
     30 C         139.8569  138.9013  162.8167 C.3     1  UNL1        0.0249
     31 C         138.8231  139.6563  163.5985 C.3     1  UNL1        0.0613
     32 C         137.7695  140.4469  162.8808 C.3     1  UNL1        0.0249
     33 C         137.7499  140.4824  161.3814 C.3     1  UNL1        0.0728
     34 C         138.8428  139.6208  165.0979 C.ar    1  UNL1        0.1396
     35 N         138.0212  138.7177  165.9694 N.ar    1  UNL1       -0.1335
     36 N         138.3581  139.0208  167.3992 N.ar    1  UNL1       -0.1277
     37 C         139.3881  140.1112  167.4115 C.ar    1  UNL1        0.1807
     38 N         139.6876  140.4820  165.9893 N.ar    1  UNL1       -0.3234
     39 H         140.3265  141.1699  165.6929 H       1  UNL1        0.1686
     40 C         140.0094  140.7234  168.6318 C.ar    1  UNL1        0.1169
     41 C         140.3946  142.1732  168.6304 C.ar    1  UNL1        0.0223
     42 C         141.0160  142.7853  169.8507 C.ar    1  UNL1        0.0032
     43 C         141.2522  141.9477  171.0725 C.ar    1  UNL1        0.0207
     44 C         140.8670  140.4980  171.0739 C.ar    1  UNL1        0.0989
     45 N         140.2456  139.8858  169.8536 N.ar    1  UNL1       -0.2407
@<TRIPOS>BOND
     1     7     8    1
     2     8     9   ar
     3     9    10   ar
     4    10    11   ar
     5    11    12   ar
     6    12    13   ar
     7    13    14   ar
     8    14    21    1
     9    21    22   ar
    10    22    23   ar
    11    23    24   ar
    12    24    25   ar
    13    25    26   ar
    14    14    15   ar
    15    15     1    1
    16     1     2   ar
    17     2     3   ar
    18     3     4   ar
    19     4    27    1
    20    27    28    1
    21    28    29    1
    22    29    30    1
    23    30    31    1
    24    31    34    1
    25    34    35   ar
    26    35    36   ar
    27    36    37   ar
    28    37    40    1
    29    40    41   ar
    30    41    42   ar
    31    42    43   ar
    32    43    44   ar
    33    44    45   ar
    34    37    38   ar
    35    31    32    1
    36    32    33    1
    37     4     5   ar
    38     5     6   ar
    39    15    16   ar
    40    16    17   ar
    41    17    18   ar
    42    18    19   ar
    43    19    20   ar
    44    20     8   ar
    45    20    11   ar
    46    17    12   ar
    47    26    21   ar
    48     6     1   ar
    49    33    28    1
    50    38    34   ar
    51    45    40   ar
    52    38    39    1
