@<TRIPOS>MOLECULE
*****
 30 33 0 0 0
SMALL
GASTEIGER

@<TRIPOS>ATOM
      1 C         142.4838  140.8405  165.8029 C.ar    1  UNL1        0.1348
      2 C         143.1914  139.8264  164.9540 C.ar    1  UNL1        0.0528
      3 C         143.2527  140.0056  163.4660 C.ar    1  UNL1        0.1071
      4 N         142.6065  141.1989  162.8270 N.ar    1  UNL1       -0.2259
      5 C         141.8989  142.2131  163.6759 C.ar    1  UNL1        0.1812
      6 N         141.8375  142.0339  165.1639 N.ar    1  UNL1       -0.2103
      7 C         141.2527  143.4064  163.0369 C.ar    1  UNL1        0.1170
      8 C         140.0994  144.0866  163.7130 C.ar    1  UNL1        0.0223
      9 C         139.4532  145.2799  163.0740 C.ar    1  UNL1        0.0032
     10 C         139.9603  145.7931  161.7589 C.ar    1  UNL1        0.0207
     11 C         141.1137  145.1129  161.0829 C.ar    1  UNL1        0.0989
     12 N         141.7599  143.9196  161.7219 N.ar    1  UNL1       -0.2407
     13 C         142.5771  139.2656  170.3369 C.3     1  UNL1        0.0186
     14 C         142.3355  140.4079  169.3953 C.3     1  UNL1        0.1156
     15 C         142.0939  141.5503  168.4537 C.3     1  UNL1        0.1078
     16 N         142.4223  140.6613  167.2910 N.pl3   1  UNL1       -0.2910
     17 C         142.6639  139.5189  168.2326 C.3     1  UNL1        0.1078
     18 C         142.0071  141.2969  170.5580 C.1     1  UNL1        0.0745
     19 N         141.6787  142.1858  171.7207 N.1     1  UNL1       -0.1958
     20 C         143.9604  138.9914  162.6170 C.3     1  UNL1        0.2511
     21 O         143.1941  137.8502  162.0165 O.3     1  UNL1       -0.4666
     22 C         141.6986  137.9174  161.9236 C.ar    1  UNL1        0.1688
     23 C         141.0466  138.4059  160.6641 C.ar    1  UNL1        0.0417
     24 C         139.5509  138.4732  160.5712 C.ar    1  UNL1        0.0352
     25 C         138.7073  138.0519  161.7377 C.ar    1  UNL1        0.1698
     26 F         137.2118  138.1192  161.6448 F       1  UNL1       -0.2017
     27 C         139.3593  137.5635  162.9972 C.ar    1  UNL1        0.1976
     28 F         138.5157  137.1422  164.1638 F       1  UNL1       -0.1993
     29 C         140.8549  137.4962  163.0901 C.ar    1  UNL1        0.2033
     30 F         141.5069  137.0077  164.3496 F       1  UNL1       -0.1985
@<TRIPOS>BOND
     1    13    14    1
     2    14    18    1
     3    18    19    3
     4    14    15    1
     5    15    16    1
     6    16     1    1
     7     1     2   ar
     8     2     3   ar
     9     3    20    1
    10    20    21    1
    11    21    22    1
    12    22    23   ar
    13    23    24   ar
    14    24    25   ar
    15    25    26    1
    16    25    27   ar
    17    27    28    1
    18    27    29   ar
    19    29    30    1
    20     3     4   ar
    21     4     5   ar
    22     5     7    1
    23     7     8   ar
    24     8     9   ar
    25     9    10   ar
    26    10    11   ar
    27    11    12   ar
    28     5     6   ar
    29    16    17    1
    30    17    14    1
    31     6     1   ar
    32    29    22   ar
    33    12     7   ar
@<TRIPOS>MOLECULE
*****
 30 33 0 0 0
SMALL
GASTEIGER

@<TRIPOS>ATOM
      1 C         142.1113  143.0474  163.6468 C.ar    1  UNL1        0.1348
      2 C         143.0740  142.0202  163.1293 C.ar    1  UNL1        0.0528
      3 C         143.7651  141.0920  164.0836 C.ar    1  UNL1        0.1071
      4 N         143.4933  141.1910  165.5555 N.ar    1  UNL1       -0.2259
      5 C         142.5306  142.2183  166.0730 C.ar    1  UNL1        0.1812
      6 N         141.8396  143.1465  165.1186 N.ar    1  UNL1       -0.2103
      7 C         142.2589  142.3173  167.5448 C.ar    1  UNL1        0.1170
      8 C         140.8493  142.2510  168.0534 C.ar    1  UNL1        0.0223
      9 C         140.5776  142.3500  169.5253 C.ar    1  UNL1        0.0032
     10 C         141.7154  142.5154  170.4885 C.ar    1  UNL1        0.0207
     11 C         143.1250  142.5817  169.9800 C.ar    1  UNL1        0.0989
     12 N         143.3967  142.4827  168.5081 N.ar    1  UNL1       -0.2407
     13 C         139.5430  146.4799  161.4862 C.3     1  UNL1        0.0186
     14 C         140.4429  145.2885  161.3428 C.3     1  UNL1        0.1156
     15 C         141.3428  144.0970  161.1993 C.3     1  UNL1        0.1078
     16 N         141.4202  143.9757  162.6924 N.pl3   1  UNL1       -0.2910
     17 C         140.5203  145.1672  162.8359 C.3     1  UNL1        0.1078
     18 C         140.3655  145.4097  159.8497 C.1     1  UNL1        0.0745
     19 N         140.2882  145.5310  158.3566 N.1     1  UNL1       -0.1958
     20 C         144.7279  140.0646  163.5662 C.3     1  UNL1        0.2511
     21 O         144.2571  138.6674  163.2901 O.3     1  UNL1       -0.4666
     22 C         142.7952  138.3930  163.0966 C.ar    1  UNL1        0.1688
     23 C         142.1695  138.5788  161.7461 C.ar    1  UNL1        0.0417
     24 C         140.7075  138.3043  161.5526 C.ar    1  UNL1        0.0352
     25 C         139.8713  137.8442  162.7098 C.ar    1  UNL1        0.1698
     26 F         138.4094  137.5698  162.5163 F       1  UNL1       -0.2017
     27 C         140.4970  137.6585  164.0603 C.ar    1  UNL1        0.1976
     28 F         139.6607  137.1984  165.2175 F       1  UNL1       -0.1993
     29 C         141.9589  137.9329  164.2538 C.ar    1  UNL1        0.2033
     30 F         142.5846  137.7472  165.6043 F       1  UNL1       -0.1985
@<TRIPOS>BOND
     1    13    14    1
     2    14    18    1
     3    18    19    3
     4    14    15    1
     5    15    16    1
     6    16     1    1
     7     1     2   ar
     8     2     3   ar
     9     3    20    1
    10    20    21    1
    11    21    22    1
    12    22    23   ar
    13    23    24   ar
    14    24    25   ar
    15    25    26    1
    16    25    27   ar
    17    27    28    1
    18    27    29   ar
    19    29    30    1
    20     3     4   ar
    21     4     5   ar
    22     5     7    1
    23     7     8   ar
    24     8     9   ar
    25     9    10   ar
    26    10    11   ar
    27    11    12   ar
    28     5     6   ar
    29    16    17    1
    30    17    14    1
    31     6     1   ar
    32    29    22   ar
    33    12     7   ar
@<TRIPOS>MOLECULE
*****
 30 33 0 0 0
SMALL
GASTEIGER

@<TRIPOS>ATOM
      1 C         139.9448  142.5418  164.7323 C.ar    1  UNL1        0.1348
      2 C         139.0865  141.3253  164.5499 C.ar    1  UNL1        0.0528
      3 C         138.9610  140.3229  165.6586 C.ar    1  UNL1        0.1071
      4 N         139.6938  140.5370  166.9498 N.ar    1  UNL1       -0.2259
      5 C         140.5521  141.7535  167.1322 C.ar    1  UNL1        0.1812
      6 N         140.6776  142.7559  166.0234 N.ar    1  UNL1       -0.2103
      7 C         141.2850  141.9677  168.4234 C.ar    1  UNL1        0.1170
      8 C         142.7594  142.2428  168.4122 C.ar    1  UNL1        0.0223
      9 C         143.4923  142.4569  169.7034 C.ar    1  UNL1        0.0032
     10 C         142.7506  142.3959  171.0057 C.ar    1  UNL1        0.0207
     11 C         141.2761  142.1208  171.0169 C.ar    1  UNL1        0.0989
     12 N         140.5433  141.9067  169.7257 N.ar    1  UNL1       -0.2407
     13 C         139.6511  146.3082  161.7703 C.3     1  UNL1        0.0186
     14 C         140.2478  144.9620  162.0555 C.3     1  UNL1        0.1156
     15 C         140.8445  143.6157  162.3407 C.3     1  UNL1        0.1078
     16 N         140.0703  143.5443  163.6235 N.pl3   1  UNL1       -0.2910
     17 C         139.4736  144.8906  163.3383 C.3     1  UNL1        0.1078
     18 C         141.0220  145.0333  160.7727 C.1     1  UNL1        0.0745
     19 N         141.7963  145.1045  159.4899 N.1     1  UNL1       -0.1958
     20 C         138.1027  139.1063  165.4763 C.3     1  UNL1        0.2511
     21 O         138.6865  137.8586  164.8825 O.3     1  UNL1       -0.4666
     22 C         139.4749  137.9321  163.6086 C.ar    1  UNL1        0.1688
     23 C         138.7714  138.1570  162.3031 C.ar    1  UNL1        0.0417
     24 C         139.5599  138.2305  161.0291 C.ar    1  UNL1        0.0352
     25 C         141.0518  138.0791  161.0607 C.ar    1  UNL1        0.1698
     26 F         141.8402  138.1526  159.7867 F       1  UNL1       -0.2017
     27 C         141.7554  137.8542  162.3662 C.ar    1  UNL1        0.1976
     28 F         143.2474  137.7028  162.3978 F       1  UNL1       -0.1993
     29 C         140.9670  137.7807  163.6401 C.ar    1  UNL1        0.2033
     30 F         141.6706  137.5558  164.9457 F       1  UNL1       -0.1985
@<TRIPOS>BOND
     1    13    14    1
     2    14    18    1
     3    18    19    3
     4    14    15    1
     5    15    16    1
     6    16     1    1
     7     1     2   ar
     8     2     3   ar
     9     3    20    1
    10    20    21    1
    11    21    22    1
    12    22    23   ar
    13    23    24   ar
    14    24    25   ar
    15    25    26    1
    16    25    27   ar
    17    27    28    1
    18    27    29   ar
    19    29    30    1
    20     3     4   ar
    21     4     5   ar
    22     5     7    1
    23     7     8   ar
    24     8     9   ar
    25     9    10   ar
    26    10    11   ar
    27    11    12   ar
    28     5     6   ar
    29    16    17    1
    30    17    14    1
    31     6     1   ar
    32    29    22   ar
    33    12     7   ar
@<TRIPOS>MOLECULE
*****
 30 33 0 0 0
SMALL
GASTEIGER

@<TRIPOS>ATOM
      1 C         141.1591  139.9260  166.2034 C.ar    1  UNL1        0.1348
      2 C         142.6325  139.6960  166.0423 C.ar    1  UNL1        0.0528
      3 C         143.2041  139.4188  164.6835 C.ar    1  UNL1        0.1071
      4 N         142.3022  139.3716  163.4858 N.ar    1  UNL1       -0.2259
      5 C         140.8288  139.6016  163.6470 C.ar    1  UNL1        0.1812
      6 N         140.2572  139.8788  165.0058 N.ar    1  UNL1       -0.2103
      7 C         139.9269  139.5544  162.4493 C.ar    1  UNL1        0.1170
      8 C         138.6596  140.3568  162.4326 C.ar    1  UNL1        0.0223
      9 C         137.7578  140.3096  161.2350 C.ar    1  UNL1        0.0032
     10 C         138.1231  139.4600  160.0540 C.ar    1  UNL1        0.0207
     11 C         139.3904  138.6577  160.0707 C.ar    1  UNL1        0.0989
     12 N         140.2922  138.7049  161.2683 N.ar    1  UNL1       -0.2407
     13 C         138.4860  140.2790  170.1753 C.3     1  UNL1        0.0186
     14 C         139.7790  140.5952  169.4840 C.3     1  UNL1        0.1156
     15 C         141.0720  140.9114  168.7926 C.3     1  UNL1        0.1078
     16 N         140.5874  140.2032  167.5623 N.pl3   1  UNL1       -0.2910
     17 C         139.2944  139.8870  168.2537 C.3     1  UNL1        0.1078
     18 C         140.2637  141.3034  170.7142 C.1     1  UNL1        0.0745
     19 N         140.7483  142.0116  171.9445 N.1     1  UNL1       -0.1958
     20 C         144.6776  139.1888  164.5223 C.3     1  UNL1        0.2511
     21 O         145.5858  140.3393  164.2037 O.3     1  UNL1       -0.4666
     22 C         145.0075  141.6895  163.8995 C.ar    1  UNL1        0.1688
     23 C         144.8545  142.7038  164.9939 C.ar    1  UNL1        0.0417
     24 C         144.2761  144.0540  164.6896 C.ar    1  UNL1        0.0352
     25 C         143.8507  144.3898  163.2910 C.ar    1  UNL1        0.1698
     26 F         143.2724  145.7400  162.9868 F       1  UNL1       -0.2017
     27 C         144.0037  143.3755  162.1966 C.ar    1  UNL1        0.1976
     28 F         143.5784  143.7113  160.7979 F       1  UNL1       -0.1993
     29 C         144.5821  142.0254  162.5008 C.ar    1  UNL1        0.2033
     30 F         144.7351  141.0111  161.4063 F       1  UNL1       -0.1985
@<TRIPOS>BOND
     1    13    14    1
     2    14    18    1
     3    18    19    3
     4    14    15    1
     5    15    16    1
     6    16     1    1
     7     1     2   ar
     8     2     3   ar
     9     3    20    1
    10    20    21    1
    11    21    22    1
    12    22    23   ar
    13    23    24   ar
    14    24    25   ar
    15    25    26    1
    16    25    27   ar
    17    27    28    1
    18    27    29   ar
    19    29    30    1
    20     3     4   ar
    21     4     5   ar
    22     5     7    1
    23     7     8   ar
    24     8     9   ar
    25     9    10   ar
    26    10    11   ar
    27    11    12   ar
    28     5     6   ar
    29    16    17    1
    30    17    14    1
    31     6     1   ar
    32    29    22   ar
    33    12     7   ar
@<TRIPOS>MOLECULE
*****
 30 33 0 0 0
SMALL
GASTEIGER

@<TRIPOS>ATOM
      1 C         140.4028  141.6211  165.9771 C.ar    1  UNL1        0.1348
      2 C         139.7761  140.3044  165.6260 C.ar    1  UNL1        0.0528
      3 C         139.2135  140.0840  164.2531 C.ar    1  UNL1        0.1071
      4 N         139.2777  141.1803  163.2314 N.ar    1  UNL1       -0.2259
      5 C         139.9044  142.4971  163.5825 C.ar    1  UNL1        0.1812
      6 N         140.4669  142.7175  164.9554 N.ar    1  UNL1       -0.2103
      7 C         139.9685  143.5934  162.5608 C.ar    1  UNL1        0.1170
      8 C         139.6737  145.0089  162.9600 C.ar    1  UNL1        0.0223
      9 C         139.7379  146.1052  161.9383 C.ar    1  UNL1        0.0032
     10 C         140.0968  145.7861  160.5173 C.ar    1  UNL1        0.0207
     11 C         140.3916  144.3706  160.1181 C.ar    1  UNL1        0.0989
     12 N         140.3275  143.2743  161.1398 N.ar    1  UNL1       -0.2407
     13 C         143.1216  142.4602  169.8436 C.3     1  UNL1        0.0186
     14 C         141.7611  142.1534  169.2917 C.3     1  UNL1        0.1156
     15 C         140.4005  141.8466  168.7397 C.3     1  UNL1        0.1078
     16 N         140.9654  141.8416  167.3501 N.pl3   1  UNL1       -0.2910
     17 C         142.3260  142.1484  167.9021 C.3     1  UNL1        0.1078
     18 C         141.1961  142.1584  170.6812 C.1     1  UNL1        0.0745
     19 N         140.6311  142.1633  172.0707 N.1     1  UNL1       -0.1958
     20 C         138.5868  138.7672  163.9019 C.3     1  UNL1        0.2511
     21 O         139.4349  137.6521  163.3661 O.3     1  UNL1       -0.4666
     22 C         140.6967  137.9629  162.6170 C.ar    1  UNL1        0.1688
     23 C         140.6581  138.1552  161.1299 C.ar    1  UNL1        0.0417
     24 C         141.9200  138.4660  160.3808 C.ar    1  UNL1        0.0352
     25 C         143.2205  138.5845  161.1188 C.ar    1  UNL1        0.1698
     26 F         144.4823  138.8953  160.3697 F       1  UNL1       -0.2017
     27 C         143.2591  138.3921  162.6059 C.ar    1  UNL1        0.1976
     28 F         144.5596  138.5106  163.3439 F       1  UNL1       -0.1993
     29 C         141.9973  138.0813  163.3550 C.ar    1  UNL1        0.2033
     30 F         142.0359  137.8890  164.8421 F       1  UNL1       -0.1985
@<TRIPOS>BOND
     1    13    14    1
     2    14    18    1
     3    18    19    3
     4    14    15    1
     5    15    16    1
     6    16     1    1
     7     1     2   ar
     8     2     3   ar
     9     3    20    1
    10    20    21    1
    11    21    22    1
    12    22    23   ar
    13    23    24   ar
    14    24    25   ar
    15    25    26    1
    16    25    27   ar
    17    27    28    1
    18    27    29   ar
    19    29    30    1
    20     3     4   ar
    21     4     5   ar
    22     5     7    1
    23     7     8   ar
    24     8     9   ar
    25     9    10   ar
    26    10    11   ar
    27    11    12   ar
    28     5     6   ar
    29    16    17    1
    30    17    14    1
    31     6     1   ar
    32    29    22   ar
    33    12     7   ar
@<TRIPOS>MOLECULE
*****
 30 33 0 0 0
SMALL
GASTEIGER

@<TRIPOS>ATOM
      1 C         140.1237  141.8710  166.1202 C.ar    1  UNL1        0.1348
      2 C         140.3645  143.2788  165.6621 C.ar    1  UNL1        0.0528
      3 C         140.2885  143.6159  164.2025 C.ar    1  UNL1        0.1071
      4 N         139.9717  142.5451  163.2009 N.ar    1  UNL1       -0.2259
      5 C         139.7309  141.1372  163.6591 C.ar    1  UNL1        0.1812
      6 N         139.8069  140.8002  165.1187 N.ar    1  UNL1       -0.2103
      7 C         139.4142  140.0664  162.6575 C.ar    1  UNL1        0.1170
      8 C         138.0614  139.4184  162.6549 C.ar    1  UNL1        0.0223
      9 C         137.7446  138.3476  161.6534 C.ar    1  UNL1        0.0032
     10 C         138.7806  137.9248  160.6545 C.ar    1  UNL1        0.0207
     11 C         140.1334  138.5728  160.6571 C.ar    1  UNL1        0.0989
     12 N         140.4502  139.6436  161.6586 N.ar    1  UNL1       -0.2407
     13 C         139.7310  139.9805  170.5154 C.3     1  UNL1        0.0186
     14 C         140.3070  141.0571  169.6442 C.3     1  UNL1        0.1156
     15 C         140.8830  142.1337  168.7729 C.3     1  UNL1        0.1078
     16 N         140.1996  141.5339  167.5799 N.pl3   1  UNL1       -0.2910
     17 C         139.6236  140.4573  168.4512 C.3     1  UNL1        0.1078
     18 C         140.9904  141.6570  170.8371 C.1     1  UNL1        0.0745
     19 N         141.6738  142.2568  172.0301 N.1     1  UNL1       -0.1958
     20 C         140.5293  145.0238  163.7443 C.3     1  UNL1        0.2511
     21 O         141.9138  145.4649  163.3719 O.3     1  UNL1       -0.4666
     22 C         143.0443  144.4792  163.3865 C.ar    1  UNL1        0.1688
     23 C         143.7825  144.2034  164.6629 C.ar    1  UNL1        0.0417
     24 C         144.9131  143.2176  164.6774 C.ar    1  UNL1        0.0352
     25 C         145.3054  142.5077  163.4157 C.ar    1  UNL1        0.1698
     26 F         146.4360  141.5220  163.4303 F       1  UNL1       -0.2017
     27 C         144.5673  142.7835  162.1393 C.ar    1  UNL1        0.1976
     28 F         144.9596  142.0736  160.8776 F       1  UNL1       -0.1993
     29 C         143.4367  143.7692  162.1247 C.ar    1  UNL1        0.2033
     30 F         142.6985  144.0450  160.8484 F       1  UNL1       -0.1985
@<TRIPOS>BOND
     1    13    14    1
     2    14    18    1
     3    18    19    3
     4    14    15    1
     5    15    16    1
     6    16     1    1
     7     1     2   ar
     8     2     3   ar
     9     3    20    1
    10    20    21    1
    11    21    22    1
    12    22    23   ar
    13    23    24   ar
    14    24    25   ar
    15    25    26    1
    16    25    27   ar
    17    27    28    1
    18    27    29   ar
    19    29    30    1
    20     3     4   ar
    21     4     5   ar
    22     5     7    1
    23     7     8   ar
    24     8     9   ar
    25     9    10   ar
    26    10    11   ar
    27    11    12   ar
    28     5     6   ar
    29    16    17    1
    30    17    14    1
    31     6     1   ar
    32    29    22   ar
    33    12     7   ar
@<TRIPOS>MOLECULE
*****
 30 33 0 0 0
SMALL
GASTEIGER

@<TRIPOS>ATOM
      1 C         141.0759  139.3552  164.0953 C.ar    1  UNL1        0.1348
      2 C         142.5287  139.3147  163.7242 C.ar    1  UNL1        0.0528
      3 C         143.5779  139.5025  164.7796 C.ar    1  UNL1        0.1071
      4 N         143.1743  139.7309  166.2061 N.ar    1  UNL1       -0.2259
      5 C         141.7215  139.7714  166.5773 C.ar    1  UNL1        0.1812
      6 N         140.6724  139.5836  165.5219 N.ar    1  UNL1       -0.2103
      7 C         141.3180  139.9998  168.0038 C.ar    1  UNL1        0.1170
      8 C         139.8690  140.1604  168.3568 C.ar    1  UNL1        0.0223
      9 C         139.4654  140.3887  169.7833 C.ar    1  UNL1        0.0032
     10 C         140.5108  140.4565  170.8568 C.ar    1  UNL1        0.0207
     11 C         141.9598  140.2959  170.5038 C.ar    1  UNL1        0.0989
     12 N         142.3633  140.0675  169.0773 N.ar    1  UNL1       -0.2407
     13 C         137.3143  138.0517  161.4126 C.3     1  UNL1        0.0186
     14 C         138.5428  138.9017  161.5474 C.3     1  UNL1        0.1156
     15 C         139.7713  139.7517  161.6822 C.3     1  UNL1        0.1078
     16 N         140.0267  139.1674  163.0399 N.pl3   1  UNL1       -0.2910
     17 C         138.7981  138.3173  162.9051 C.3     1  UNL1        0.1078
     18 C         138.2875  139.4861  160.1897 C.1     1  UNL1        0.0745
     19 N         138.0322  140.0704  158.8320 N.1     1  UNL1       -0.1958
     20 C         145.0307  139.4619  164.4085 C.3     1  UNL1        0.2511
     21 O         145.7478  140.7286  164.0460 O.3     1  UNL1       -0.4666
     22 C         144.9706  141.9903  163.8140 C.ar    1  UNL1        0.1688
     23 C         144.7502  142.9537  164.9424 C.ar    1  UNL1        0.0417
     24 C         143.9730  144.2155  164.7103 C.ar    1  UNL1        0.0352
     25 C         143.4162  144.5139  163.3499 C.ar    1  UNL1        0.1698
     26 F         142.6390  145.7757  163.1179 F       1  UNL1       -0.2017
     27 C         143.6366  143.5506  162.2214 C.ar    1  UNL1        0.1976
     28 F         143.0798  143.8490  160.8610 F       1  UNL1       -0.1993
     29 C         144.4138  142.2888  162.4534 C.ar    1  UNL1        0.2033
     30 F         144.6342  141.3255  161.3250 F       1  UNL1       -0.1985
@<TRIPOS>BOND
     1    13    14    1
     2    14    18    1
     3    18    19    3
     4    14    15    1
     5    15    16    1
     6    16     1    1
     7     1     2   ar
     8     2     3   ar
     9     3    20    1
    10    20    21    1
    11    21    22    1
    12    22    23   ar
    13    23    24   ar
    14    24    25   ar
    15    25    26    1
    16    25    27   ar
    17    27    28    1
    18    27    29   ar
    19    29    30    1
    20     3     4   ar
    21     4     5   ar
    22     5     7    1
    23     7     8   ar
    24     8     9   ar
    25     9    10   ar
    26    10    11   ar
    27    11    12   ar
    28     5     6   ar
    29    16    17    1
    30    17    14    1
    31     6     1   ar
    32    29    22   ar
    33    12     7   ar
@<TRIPOS>MOLECULE
*****
 30 33 0 0 0
SMALL
GASTEIGER

@<TRIPOS>ATOM
      1 C         142.1694  140.7557  166.0198 C.ar    1  UNL1        0.1348
      2 C         143.3717  141.3174  165.3207 C.ar    1  UNL1        0.0528
      3 C         143.4054  141.3835  163.8226 C.ar    1  UNL1        0.1071
      4 N         142.2368  140.8878  163.0235 N.ar    1  UNL1       -0.2259
      5 C         141.0344  140.3261  163.7226 C.ar    1  UNL1        0.1812
      6 N         141.0007  140.2601  165.2207 N.ar    1  UNL1       -0.2103
      7 C         139.8657  139.8304  162.9235 C.ar    1  UNL1        0.1170
      8 C         139.5184  138.3712  162.9288 C.ar    1  UNL1        0.0223
      9 C         138.3497  137.8756  162.1297 C.ar    1  UNL1        0.0032
     10 C         137.5284  138.8391  161.3254 C.ar    1  UNL1        0.0207
     11 C         137.8757  140.2983  161.3202 C.ar    1  UNL1        0.0989
     12 N         139.0444  140.7940  162.1192 N.ar    1  UNL1       -0.2407
     13 C         142.7453  139.7367  170.6755 C.3     1  UNL1        0.0186
     14 C         142.0880  140.5962  169.6367 C.3     1  UNL1        0.1156
     15 C         141.4306  141.4557  168.5979 C.3     1  UNL1        0.1078
     16 N         142.1356  140.6897  167.5180 N.pl3   1  UNL1       -0.2910
     17 C         142.7930  139.8302  168.5568 C.3     1  UNL1        0.1078
     18 C         141.3829  141.3622  170.7166 C.1     1  UNL1        0.0745
     19 N         140.6779  142.1284  171.7964 N.1     1  UNL1       -0.1958
     20 C         144.6078  141.9452  163.1234 C.3     1  UNL1        0.2511
     21 O         144.5835  143.3516  162.6024 O.3     1  UNL1       -0.4666
     22 C         143.2801  144.0840  162.4810 C.ar    1  UNL1        0.1688
     23 C         142.7513  144.8715  163.6430 C.ar    1  UNL1        0.0417
     24 C         141.4478  145.6039  163.5215 C.ar    1  UNL1        0.0352
     25 C         140.6733  145.5487  162.2382 C.ar    1  UNL1        0.1698
     26 F         139.3699  146.2811  162.1168 F       1  UNL1       -0.2017
     27 C         141.2021  144.7612  161.0762 C.ar    1  UNL1        0.1976
     28 F         140.4276  144.7060  159.7929 F       1  UNL1       -0.1993
     29 C         142.5055  144.0288  161.1976 C.ar    1  UNL1        0.2033
     30 F         143.0343  143.2413  160.0357 F       1  UNL1       -0.1985
@<TRIPOS>BOND
     1    13    14    1
     2    14    18    1
     3    18    19    3
     4    14    15    1
     5    15    16    1
     6    16     1    1
     7     1     2   ar
     8     2     3   ar
     9     3    20    1
    10    20    21    1
    11    21    22    1
    12    22    23   ar
    13    23    24   ar
    14    24    25   ar
    15    25    26    1
    16    25    27   ar
    17    27    28    1
    18    27    29   ar
    19    29    30    1
    20     3     4   ar
    21     4     5   ar
    22     5     7    1
    23     7     8   ar
    24     8     9   ar
    25     9    10   ar
    26    10    11   ar
    27    11    12   ar
    28     5     6   ar
    29    16    17    1
    30    17    14    1
    31     6     1   ar
    32    29    22   ar
    33    12     7   ar
@<TRIPOS>MOLECULE
*****
 30 33 0 0 0
SMALL
GASTEIGER

@<TRIPOS>ATOM
      1 C         140.4264  139.8589  163.4220 C.ar    1  UNL1        0.1348
      2 C         141.8921  139.5795  163.2683 C.ar    1  UNL1        0.0528
      3 C         142.5704  139.8341  161.9549 C.ar    1  UNL1        0.1071
      4 N         141.7830  140.3681  160.7952 N.ar    1  UNL1       -0.2259
      5 C         140.3174  140.6475  160.9489 C.ar    1  UNL1        0.1812
      6 N         139.6390  140.3929  162.2623 N.ar    1  UNL1       -0.2103
      7 C         139.5300  141.1816  159.7892 C.ar    1  UNL1        0.1170
      8 C         138.4981  140.3205  159.1232 C.ar    1  UNL1        0.0223
      9 C         137.7107  140.8545  157.9635 C.ar    1  UNL1        0.0032
     10 C         137.9553  142.2496  157.4699 C.ar    1  UNL1        0.0207
     11 C         138.9872  143.1107  158.1358 C.ar    1  UNL1        0.0989
     12 N         139.7745  142.5767  159.2955 N.ar    1  UNL1       -0.2407
     13 C         137.5908  138.4556  167.0325 C.3     1  UNL1        0.0186
     14 C         138.7886  139.2441  166.5928 C.3     1  UNL1        0.1156
     15 C         139.9864  140.0327  166.1530 C.3     1  UNL1        0.1078
     16 N         139.7480  139.6042  164.7354 N.pl3   1  UNL1       -0.2910
     17 C         138.5502  138.8157  165.1752 C.3     1  UNL1        0.1078
     18 C         139.0271  139.6726  168.0104 C.1     1  UNL1        0.0745
     19 N         139.2656  140.1011  169.4280 N.1     1  UNL1       -0.1958
     20 C         144.0362  139.5547  161.8012 C.3     1  UNL1        0.2511
     21 O         145.0234  140.6832  161.8449 O.3     1  UNL1       -0.4666
     22 C         144.6920  141.9410  162.5919 C.ar    1  UNL1        0.1688
     23 C         144.3995  143.2053  161.8394 C.ar    1  UNL1        0.0417
     24 C         144.0682  144.4631  162.5865 C.ar    1  UNL1        0.0352
     25 C         144.0293  144.4568  164.0859 C.ar    1  UNL1        0.1698
     26 F         143.6979  145.7146  164.8329 F       1  UNL1       -0.2017
     27 C         144.3218  143.1925  164.8384 C.ar    1  UNL1        0.1976
     28 F         144.2829  143.1862  166.3378 F       1  UNL1       -0.1993
     29 C         144.6531  141.9347  164.0914 C.ar    1  UNL1        0.2033
     30 F         144.9456  140.6705  164.8439 F       1  UNL1       -0.1985
@<TRIPOS>BOND
     1    13    14    1
     2    14    18    1
     3    18    19    3
     4    14    15    1
     5    15    16    1
     6    16     1    1
     7     1     2   ar
     8     2     3   ar
     9     3    20    1
    10    20    21    1
    11    21    22    1
    12    22    23   ar
    13    23    24   ar
    14    24    25   ar
    15    25    26    1
    16    25    27   ar
    17    27    28    1
    18    27    29   ar
    19    29    30    1
    20     3     4   ar
    21     4     5   ar
    22     5     7    1
    23     7     8   ar
    24     8     9   ar
    25     9    10   ar
    26    10    11   ar
    27    11    12   ar
    28     5     6   ar
    29    16    17    1
    30    17    14    1
    31     6     1   ar
    32    29    22   ar
    33    12     7   ar
