@<TRIPOS>MOLECULE
*****
 21 22 0 0 0
SMALL
GASTEIGER

@<TRIPOS>ATOM
      1 C         139.1286  139.9787  166.8096 C.ar    1  UNL1        0.0289
      2 C         139.3971  139.9445  168.2850 C.ar    1  UNL1        0.0104
      3 C         140.1155  141.0850  168.9432 C.ar    1  UNL1        0.0684
      4 C         140.5653  142.2597  168.1260 C.ar    1  UNL1        0.0134
      5 C         140.2967  142.2939  166.6507 C.ar    1  UNL1        0.0379
      6 C         139.5784  141.1534  165.9925 C.ar    1  UNL1        0.1426
      7 C         140.3840  141.0508  170.4186 C.1     1  UNL1        0.1004
      8 N         140.6525  141.0166  171.8939 N.1     1  UNL1       -0.1908
      9 C         138.4103  138.8382  166.1514 C.3     1  UNL1        0.0987
     10 C         140.2618  137.6350  164.7824 C.3     1  UNL1        0.0861
     11 N         138.9124  138.2866  164.8501 N.3     1  UNL1       -0.2925
     12 H         138.2333  137.5898  164.5440 H       1  UNL1        0.1236
     13 O         139.3099  141.1876  164.5171 O.3     1  UNL1       -0.4537
     14 C         139.3764  142.4880  163.7726 C.ar    1  UNL1        0.1462
     15 C         138.1848  143.3989  163.7459 C.ar    1  UNL1        0.0384
     16 C         138.2514  144.6993  163.0015 C.ar    1  UNL1        0.0154
     17 C         139.5095  145.0891  162.2836 C.ar    1  UNL1        0.0684
     18 CL        139.5760  146.3896  161.5392 Cl      1  UNL1       -0.0814
     19 C         140.7010  144.1784  162.3103 C.ar    1  UNL1        0.0712
     20 CL        141.9591  144.5681  161.5924 Cl      1  UNL1       -0.0813
     21 C         140.6345  142.8778  163.0548 C.ar    1  UNL1        0.0497
@<TRIPOS>BOND
     1    10    11    1
     2    11     9    1
     3     9     1    1
     4     1     2   ar
     5     2     3   ar
     6     3     7    1
     7     7     8    3
     8     3     4   ar
     9     4     5   ar
    10     5     6   ar
    11     6    13    1
    12    13    14    1
    13    14    15   ar
    14    15    16   ar
    15    16    17   ar
    16    17    18    1
    17    17    19   ar
    18    19    20    1
    19    19    21   ar
    20     6     1   ar
    21    21    14   ar
    22    11    12    1
@<TRIPOS>MOLECULE
*****
 21 22 0 0 0
SMALL
GASTEIGER

@<TRIPOS>ATOM
      1 C         143.0364  141.1624  165.9622 C.ar    1  UNL1        0.0289
      2 C         143.0425  142.1439  167.0965 C.ar    1  UNL1        0.0104
      3 C         142.8867  141.6601  168.5078 C.ar    1  UNL1        0.0684
      4 C         142.7248  140.1949  168.7847 C.ar    1  UNL1        0.0134
      5 C         142.7187  139.2134  167.6505 C.ar    1  UNL1        0.0379
      6 C         142.8745  139.6972  166.2392 C.ar    1  UNL1        0.1426
      7 C         142.8928  142.6417  169.6421 C.1     1  UNL1        0.1004
      8 N         142.8989  143.6232  170.7763 N.1     1  UNL1       -0.1908
      9 C         143.1922  141.6462  164.5509 C.3     1  UNL1        0.0987
     10 C         145.6941  141.4111  163.8912 C.3     1  UNL1        0.0861
     11 N         144.2534  141.0577  163.6692 N.3     1  UNL1       -0.2925
     12 H         144.1817  140.0441  163.7586 H       1  UNL1        0.1236
     13 O         142.8684  138.7156  165.1049 O.3     1  UNL1       -0.4537
     14 C         141.6162  138.4975  164.3086 C.ar    1  UNL1        0.1462
     15 C         140.3263  138.1880  165.0090 C.ar    1  UNL1        0.0384
     16 C         139.0740  137.9699  164.2127 C.ar    1  UNL1        0.0154
     17 C         139.1115  138.0612  162.7159 C.ar    1  UNL1        0.0684
     18 CL        137.8593  137.8430  161.9196 Cl      1  UNL1       -0.0814
     19 C         140.4013  138.3706  162.0155 C.ar    1  UNL1        0.0712
     20 CL        140.4389  138.4619  160.5187 Cl      1  UNL1       -0.0813
     21 C         141.6537  138.5888  162.8118 C.ar    1  UNL1        0.0497
@<TRIPOS>BOND
     1    10    11    1
     2    11     9    1
     3     9     1    1
     4     1     2   ar
     5     2     3   ar
     6     3     7    1
     7     7     8    3
     8     3     4   ar
     9     4     5   ar
    10     5     6   ar
    11     6    13    1
    12    13    14    1
    13    14    15   ar
    14    15    16   ar
    15    16    17   ar
    16    17    18    1
    17    17    19   ar
    18    19    20    1
    19    19    21   ar
    20     6     1   ar
    21    21    14   ar
    22    11    12    1
@<TRIPOS>MOLECULE
*****
 21 22 0 0 0
SMALL
GASTEIGER

@<TRIPOS>ATOM
      1 C         140.4667  142.2274  166.4700 C.ar    1  UNL1        0.0289
      2 C         140.6306  142.5184  167.9323 C.ar    1  UNL1        0.0104
      3 C         140.2264  141.4940  168.9508 C.ar    1  UNL1        0.0684
      4 C         139.6583  140.1787  168.5070 C.ar    1  UNL1        0.0134
      5 C         139.4945  139.8876  167.0447 C.ar    1  UNL1        0.0379
      6 C         139.8986  140.9120  166.0262 C.ar    1  UNL1        0.1426
      7 C         140.3903  141.7851  170.4132 C.1     1  UNL1        0.1004
      8 N         140.5542  142.0762  171.8755 N.1     1  UNL1       -0.1908
      9 C         140.8709  143.2517  165.4515 C.3     1  UNL1        0.0987
     10 C         138.7947  144.7478  165.0035 C.3     1  UNL1        0.0861
     11 N         139.8515  143.8086  164.5025 N.3     1  UNL1       -0.2925
     12 H         140.3664  144.3055  163.7756 H       1  UNL1        0.1236
     13 O         139.7347  140.6209  164.5638 O.3     1  UNL1       -0.4537
     14 C         140.8133  139.8920  163.8187 C.ar    1  UNL1        0.1462
     15 C         140.4532  138.9557  162.7035 C.ar    1  UNL1        0.0384
     16 C         141.5318  138.2267  161.9583 C.ar    1  UNL1        0.0154
     17 C         142.9705  138.4340  162.3284 C.ar    1  UNL1        0.0684
     18 CL        144.0491  137.7051  161.5833 Cl      1  UNL1       -0.0814
     19 C         143.3307  139.3703  163.4436 C.ar    1  UNL1        0.0712
     20 CL        144.7695  139.5775  163.8137 Cl      1  UNL1       -0.0813
     21 C         142.2521  140.0993  164.1888 C.ar    1  UNL1        0.0497
@<TRIPOS>BOND
     1    10    11    1
     2    11     9    1
     3     9     1    1
     4     1     2   ar
     5     2     3   ar
     6     3     7    1
     7     7     8    3
     8     3     4   ar
     9     4     5   ar
    10     5     6   ar
    11     6    13    1
    12    13    14    1
    13    14    15   ar
    14    15    16   ar
    15    16    17   ar
    16    17    18    1
    17    17    19   ar
    18    19    20    1
    19    19    21   ar
    20     6     1   ar
    21    21    14   ar
    22    11    12    1
@<TRIPOS>MOLECULE
*****
 21 22 0 0 0
SMALL
GASTEIGER

@<TRIPOS>ATOM
      1 C         140.5347  142.0939  168.9692 C.ar    1  UNL1        0.0289
      2 C         139.5729  141.4143  169.8981 C.ar    1  UNL1        0.0104
      3 C         138.7751  140.2368  169.4217 C.ar    1  UNL1        0.0684
      4 C         138.9391  139.7389  168.0163 C.ar    1  UNL1        0.0134
      5 C         139.9009  140.4185  167.0874 C.ar    1  UNL1        0.0379
      6 C         140.6987  141.5960  167.5638 C.ar    1  UNL1        0.1426
      7 C         137.8133  139.5572  170.3508 C.1     1  UNL1        0.1004
      8 N         136.8515  138.8776  171.2798 N.1     1  UNL1       -0.1908
      9 C         141.3325  143.2714  169.4456 C.3     1  UNL1        0.0987
     10 C         143.3944  141.7365  169.8232 C.3     1  UNL1        0.0861
     11 N         142.7286  143.0739  169.9573 N.3     1  UNL1       -0.2925
     12 H         143.3192  143.7471  169.4690 H       1  UNL1        0.1236
     13 O         141.6606  142.2756  166.6347 O.3     1  UNL1       -0.4537
     14 C         141.1461  143.1630  165.5402 C.ar    1  UNL1        0.1462
     15 C         139.7808  143.7746  165.6500 C.ar    1  UNL1        0.0384
     16 C         139.2663  144.6619  164.5555 C.ar    1  UNL1        0.0154
     17 C         140.1171  144.9376  163.3512 C.ar    1  UNL1        0.0684
     18 CL        139.6026  145.8250  162.2568 Cl      1  UNL1       -0.0814
     19 C         141.4823  144.3261  163.2415 C.ar    1  UNL1        0.0712
     20 CL        142.3330  144.6018  162.0372 Cl      1  UNL1       -0.0813
     21 C         141.9968  143.4387  164.3360 C.ar    1  UNL1        0.0497
@<TRIPOS>BOND
     1    10    11    1
     2    11     9    1
     3     9     1    1
     4     1     2   ar
     5     2     3   ar
     6     3     7    1
     7     7     8    3
     8     3     4   ar
     9     4     5   ar
    10     5     6   ar
    11     6    13    1
    12    13    14    1
    13    14    15   ar
    14    15    16   ar
    15    16    17   ar
    16    17    18    1
    17    17    19   ar
    18    19    20    1
    19    19    21   ar
    20     6     1   ar
    21    21    14   ar
    22    11    12    1
@<TRIPOS>MOLECULE
*****
 21 22 0 0 0
SMALL
GASTEIGER

@<TRIPOS>ATOM
      1 C         142.7656  143.3965  164.2113 C.ar    1  UNL1        0.0289
      2 C         142.1415  144.5091  163.4223 C.ar    1  UNL1        0.0104
      3 C         140.7148  144.4006  162.9718 C.ar    1  UNL1        0.0684
      4 C         139.9123  143.1794  163.3105 C.ar    1  UNL1        0.0134
      5 C         140.5364  142.0669  164.0995 C.ar    1  UNL1        0.0379
      6 C         141.9630  142.1754  164.5499 C.ar    1  UNL1        0.1426
      7 C         140.0907  145.5132  162.1827 C.1     1  UNL1        0.1004
      8 N         139.4667  146.6258  161.3937 N.1     1  UNL1       -0.1908
      9 C         144.1922  143.5051  164.6618 C.3     1  UNL1        0.0987
     10 C         145.3938  141.9395  162.9721 C.3     1  UNL1        0.0861
     11 N         145.1537  142.3881  164.3832 N.3     1  UNL1       -0.2925
     12 H         146.0573  142.6769  164.7581 H       1  UNL1        0.1236
     13 O         142.5871  141.0628  165.3390 O.3     1  UNL1       -0.4537
     14 C         142.4010  141.0019  166.8262 C.ar    1  UNL1        0.1462
     15 C         142.6294  139.7129  167.5585 C.ar    1  UNL1        0.0384
     16 C         142.4433  139.6520  169.0457 C.ar    1  UNL1        0.0154
     17 C         142.0288  140.8802  169.8005 C.ar    1  UNL1        0.0684
     18 CL        141.8427  140.8194  171.2877 Cl      1  UNL1       -0.0814
     19 C         141.8004  142.1692  169.0683 C.ar    1  UNL1        0.0712
     20 CL        141.3859  143.3974  169.8231 Cl      1  UNL1       -0.0813
     21 C         141.9865  142.2301  167.5810 C.ar    1  UNL1        0.0497
@<TRIPOS>BOND
     1    10    11    1
     2    11     9    1
     3     9     1    1
     4     1     2   ar
     5     2     3   ar
     6     3     7    1
     7     7     8    3
     8     3     4   ar
     9     4     5   ar
    10     5     6   ar
    11     6    13    1
    12    13    14    1
    13    14    15   ar
    14    15    16   ar
    15    16    17   ar
    16    17    18    1
    17    17    19   ar
    18    19    20    1
    19    19    21   ar
    20     6     1   ar
    21    21    14   ar
    22    11    12    1
@<TRIPOS>MOLECULE
*****
 21 22 0 0 0
SMALL
GASTEIGER

@<TRIPOS>ATOM
      1 C         140.7111  142.6839  166.5152 C.ar    1  UNL1        0.0289
      2 C         140.3550  142.5634  167.9673 C.ar    1  UNL1        0.0104
      3 C         141.4268  142.2994  168.9829 C.ar    1  UNL1        0.0684
      4 C         142.8547  142.1560  168.5465 C.ar    1  UNL1        0.0134
      5 C         143.2108  142.2766  167.0944 C.ar    1  UNL1        0.0379
      6 C         142.1390  142.5406  166.0787 C.ar    1  UNL1        0.1426
      7 C         141.0707  142.1788  170.4351 C.1     1  UNL1        0.1004
      8 N         140.7146  142.0582  171.8872 N.1     1  UNL1       -0.1908
      9 C         139.6393  142.9479  165.4995 C.3     1  UNL1        0.0987
     10 C         139.0234  144.1323  163.2707 C.3     1  UNL1        0.0861
     11 N         139.7489  144.1307  164.5836 N.3     1  UNL1       -0.2925
     12 H         139.4137  144.9399  165.1062 H       1  UNL1        0.1236
     13 O         142.4951  142.6611  164.6266 O.3     1  UNL1       -0.4537
     14 C         142.8700  141.4387  163.8423 C.ar    1  UNL1        0.1462
     15 C         143.9723  141.5078  162.8272 C.ar    1  UNL1        0.0384
     16 C         144.3472  140.2854  162.0429 C.ar    1  UNL1        0.0154
     17 C         143.6199  138.9939  162.2737 C.ar    1  UNL1        0.0684
     18 CL        143.9948  137.7715  161.4894 Cl      1  UNL1       -0.0814
     19 C         142.5177  138.9249  163.2887 C.ar    1  UNL1        0.0712
     20 CL        141.7905  137.6334  163.5195 Cl      1  UNL1       -0.0813
     21 C         142.1428  140.1473  164.0730 C.ar    1  UNL1        0.0497
@<TRIPOS>BOND
     1    10    11    1
     2    11     9    1
     3     9     1    1
     4     1     2   ar
     5     2     3   ar
     6     3     7    1
     7     7     8    3
     8     3     4   ar
     9     4     5   ar
    10     5     6   ar
    11     6    13    1
    12    13    14    1
    13    14    15   ar
    14    15    16   ar
    15    16    17   ar
    16    17    18    1
    17    17    19   ar
    18    19    20    1
    19    19    21   ar
    20     6     1   ar
    21    21    14   ar
    22    11    12    1
@<TRIPOS>MOLECULE
*****
 21 22 0 0 0
SMALL
GASTEIGER

@<TRIPOS>ATOM
      1 C         140.5954  139.2239  165.5196 C.ar    1  UNL1        0.0289
      2 C         140.5753  139.9163  166.8500 C.ar    1  UNL1        0.0104
      3 C         139.3775  139.7887  167.7439 C.ar    1  UNL1        0.0684
      4 C         138.1999  138.9686  167.3074 C.ar    1  UNL1        0.0134
      5 C         138.2200  138.2762  165.9769 C.ar    1  UNL1        0.0379
      6 C         139.4178  138.4038  165.0830 C.ar    1  UNL1        0.1426
      7 C         139.3574  140.4811  169.0744 C.1     1  UNL1        0.1004
      8 N         139.3374  141.1736  170.4048 N.1     1  UNL1       -0.1908
      9 C         141.7932  139.3515  164.6257 C.3     1  UNL1        0.0987
     10 C         143.0350  138.2412  162.6319 C.3     1  UNL1        0.0861
     11 N         142.3772  138.1324  163.9756 N.3     1  UNL1       -0.2925
     12 H         143.0786  137.7636  164.6178 H       1  UNL1        0.1236
     13 O         139.4378  137.7114  163.7525 O.3     1  UNL1       -0.4537
     14 C         139.0454  138.4582  162.5123 C.ar    1  UNL1        0.1462
     15 C         138.0807  139.6036  162.6001 C.ar    1  UNL1        0.0384
     16 C         137.6883  140.3504  161.3599 C.ar    1  UNL1        0.0154
     17 C         138.2606  139.9521  160.0319 C.ar    1  UNL1        0.0684
     18 CL        137.8682  140.6989  158.7917 Cl      1  UNL1       -0.0814
     19 C         139.2253  138.8068  159.9440 C.ar    1  UNL1        0.0712
     20 CL        139.7976  138.4085  158.6159 Cl      1  UNL1       -0.0813
     21 C         139.6177  138.0599  161.1842 C.ar    1  UNL1        0.0497
@<TRIPOS>BOND
     1    10    11    1
     2    11     9    1
     3     9     1    1
     4     1     2   ar
     5     2     3   ar
     6     3     7    1
     7     7     8    3
     8     3     4   ar
     9     4     5   ar
    10     5     6   ar
    11     6    13    1
    12    13    14    1
    13    14    15   ar
    14    15    16   ar
    15    16    17   ar
    16    17    18    1
    17    17    19   ar
    18    19    20    1
    19    19    21   ar
    20     6     1   ar
    21    21    14   ar
    22    11    12    1
@<TRIPOS>MOLECULE
*****
 21 22 0 0 0
SMALL
GASTEIGER

@<TRIPOS>ATOM
      1 C         140.7201  138.9205  164.1894 C.ar    1  UNL1        0.0289
      2 C         141.9168  138.1976  164.7329 C.ar    1  UNL1        0.0104
      3 C         142.5196  138.6215  166.0394 C.ar    1  UNL1        0.0684
      4 C         141.9257  139.7682  166.8024 C.ar    1  UNL1        0.0134
      5 C         140.7291  140.4911  166.2589 C.ar    1  UNL1        0.0379
      6 C         140.1263  140.0673  164.9524 C.ar    1  UNL1        0.1426
      7 C         143.7163  137.8985  166.5829 C.1     1  UNL1        0.1004
      8 N         144.9129  137.1755  167.1263 N.1     1  UNL1       -0.1908
      9 C         140.1173  138.4966  162.8829 C.3     1  UNL1        0.0987
     10 C         137.7849  138.6504  161.7489 C.3     1  UNL1        0.0861
     11 N         138.6747  138.0909  162.8191 N.3     1  UNL1       -0.2925
     12 H         138.6585  137.0764  162.7149 H       1  UNL1        0.1236
     13 O         138.9296  140.7902  164.4089 O.3     1  UNL1       -0.4537
     14 C         139.0925  142.1405  163.7763 C.ar    1  UNL1        0.1462
     15 C         137.9245  143.0785  163.6992 C.ar    1  UNL1        0.0384
     16 C         138.0874  144.4287  163.0666 C.ar    1  UNL1        0.0154
     17 C         139.4183  144.8410  162.5110 C.ar    1  UNL1        0.0684
     18 CL        139.5812  146.1913  161.8784 Cl      1  UNL1       -0.0814
     19 C         140.5863  143.9031  162.5881 C.ar    1  UNL1        0.0712
     20 CL        141.9173  144.3154  162.0326 Cl      1  UNL1       -0.0813
     21 C         140.4234  142.5528  163.2208 C.ar    1  UNL1        0.0497
@<TRIPOS>BOND
     1    10    11    1
     2    11     9    1
     3     9     1    1
     4     1     2   ar
     5     2     3   ar
     6     3     7    1
     7     7     8    3
     8     3     4   ar
     9     4     5   ar
    10     5     6   ar
    11     6    13    1
    12    13    14    1
    13    14    15   ar
    14    15    16   ar
    15    16    17   ar
    16    17    18    1
    17    17    19   ar
    18    19    20    1
    19    19    21   ar
    20     6     1   ar
    21    21    14   ar
    22    11    12    1
@<TRIPOS>MOLECULE
*****
 21 22 0 0 0
SMALL
GASTEIGER

@<TRIPOS>ATOM
      1 C         140.3677  139.5727  166.6328 C.ar    1  UNL1        0.0289
      2 C         140.0536  140.0383  168.0236 C.ar    1  UNL1        0.0104
      3 C         141.1369  140.0903  169.0598 C.ar    1  UNL1        0.0684
      4 C         142.5344  139.6766  168.7051 C.ar    1  UNL1        0.0134
      5 C         142.8486  139.2109  167.3143 C.ar    1  UNL1        0.0379
      6 C         141.7652  139.1590  166.2781 C.ar    1  UNL1        0.1426
      7 C         140.8227  140.5560  170.4507 C.1     1  UNL1        0.1004
      8 N         140.5085  141.0216  171.8415 N.1     1  UNL1       -0.1908
      9 C         139.2844  139.5207  165.5966 C.3     1  UNL1        0.0987
     10 C         138.9200  138.1976  163.3906 C.3     1  UNL1        0.0861
     11 N         138.9847  138.2327  164.8888 N.3     1  UNL1       -0.2925
     12 H         139.7065  137.5684  165.1681 H       1  UNL1        0.1236
     13 O         142.0794  138.6933  164.8872 O.3     1  UNL1       -0.4537
     14 C         142.7643  139.6168  163.9239 C.ar    1  UNL1        0.1462
     15 C         144.2601  139.7297  163.9277 C.ar    1  UNL1        0.0384
     16 C         144.9449  140.6532  162.9644 C.ar    1  UNL1        0.0154
     17 C         144.1341  141.4638  161.9972 C.ar    1  UNL1        0.0684
     18 CL        144.8190  142.3873  161.0339 Cl      1  UNL1       -0.0814
     19 C         142.6384  141.3509  161.9934 C.ar    1  UNL1        0.0712
     20 CL        141.8275  142.1616  161.0262 Cl      1  UNL1       -0.0813
     21 C         141.9534  140.4274  162.9567 C.ar    1  UNL1        0.0497
@<TRIPOS>BOND
     1    10    11    1
     2    11     9    1
     3     9     1    1
     4     1     2   ar
     5     2     3   ar
     6     3     7    1
     7     7     8    3
     8     3     4   ar
     9     4     5   ar
    10     5     6   ar
    11     6    13    1
    12    13    14    1
    13    14    15   ar
    14    15    16   ar
    15    16    17   ar
    16    17    18    1
    17    17    19   ar
    18    19    20    1
    19    19    21   ar
    20     6     1   ar
    21    21    14   ar
    22    11    12    1
