@<TRIPOS>MOLECULE
*****
 31 33 0 0 0
SMALL
GASTEIGER

@<TRIPOS>ATOM
      1 C         137.7796  140.7561  158.5613 C.ar    1  UNL1        0.2181
      2 N         138.3218  142.1438  158.7349 N.ar    1  UNL1       -0.1986
      3 C         138.7462  142.6188  160.0930 C.ar    1  UNL1        0.1388
      4 C         138.6281  141.7061  161.2774 C.ar    1  UNL1        0.0786
      5 S         138.9639  141.8946  162.7272 S.2     1  UNL1       -0.0826
      6 C         138.6291  140.6233  163.4495 C.ar    1  UNL1        0.0311
      7 C         138.0864  139.6492  162.4463 C.ar    1  UNL1        0.0263
      8 C         138.0858  140.3184  161.1038 C.ar    1  UNL1        0.0933
      9 N         137.6615  139.8434  159.7458 N.ar    1  UNL1       -0.2132
     10 C         138.8059  140.3706  164.9175 C.ar    1  UNL1        0.0062
     11 C         139.7232  141.2419  165.7234 C.ar    1  UNL1        0.0036
     12 C         139.8999  140.9890  167.1914 C.ar    1  UNL1        0.0372
     13 C         139.1595  139.8650  167.8534 C.ar    1  UNL1        0.1468
     14 C         138.2423  138.9937  167.0475 C.ar    1  UNL1        0.0372
     15 C         138.0655  139.2466  165.5795 C.ar    1  UNL1        0.0036
     16 O         139.3363  139.6122  169.3214 O.3     1  UNL1       -0.4045
     17 C         140.4080  140.3343  170.0830 C.3     1  UNL1        0.5753
     18 F         141.4797  141.0564  170.8446 F       1  UNL1       -0.1328
     19 F         141.3693  139.2222  169.7847 F       1  UNL1       -0.1328
     20 F         139.4467  141.4465  170.3813 F       1  UNL1       -0.1328
     21 C         136.2947  141.0243  156.4463 C.3     1  UNL1        0.1108
     22 N         137.3552  140.2811  157.2032 N.pl3   1  UNL1       -0.3013
     23 H         137.7728  139.4815  156.8087 H       1  UNL1        0.1497
     24 N         139.2885  144.0066  160.2665 N.pl3   1  UNL1       -0.3176
     25 H         138.6938  144.7344  160.5597 H       1  UNL1        0.1482
     26 C         140.7368  144.2854  159.9934 C.3     1  UNL1        0.0896
     27 C         141.7045  144.4096  161.1327 C.3     1  UNL1        0.0385
     28 C         142.8057  143.4041  161.2943 C.3     1  UNL1        0.0739
     29 N         143.8643  143.6120  162.3367 N.3     1  UNL1       -0.2703
     30 C         143.8579  144.8562  163.1743 C.3     1  UNL1        0.0897
     31 C         144.9291  142.5755  162.5413 C.3     1  UNL1        0.0897
@<TRIPOS>BOND
     1    21    22    1
     2    22     1    1
     3     1     2   ar
     4     2     3   ar
     5     3    24    1
     6    24    26    1
     7    26    27    1
     8    27    28    1
     9    28    29    1
    10    29    30    1
    11    29    31    1
    12     3     4   ar
    13     4     5   ar
    14     5     6   ar
    15     6    10    1
    16    10    11   ar
    17    11    12   ar
    18    12    13   ar
    19    13    16    1
    20    16    17    1
    21    17    18    1
    22    17    19    1
    23    17    20    1
    24    13    14   ar
    25    14    15   ar
    26     6     7   ar
    27     7     8   ar
    28     8     9   ar
    29     9     1   ar
    30     8     4   ar
    31    15    10   ar
    32    22    23    1
    33    24    25    1
@<TRIPOS>MOLECULE
*****
 31 33 0 0 0
SMALL
GASTEIGER

@<TRIPOS>ATOM
      1 C         141.3847  144.9700  159.5284 C.ar    1  UNL1        0.2181
      2 N         140.1681  144.2760  158.9919 N.ar    1  UNL1       -0.1986
      3 C         139.3932  143.3364  159.8676 C.ar    1  UNL1        0.1388
      4 C         139.8350  143.0911  161.2799 C.ar    1  UNL1        0.0786
      5 S         139.2762  142.2260  162.3704 S.2     1  UNL1       -0.0826
      6 C         140.1475  142.3854  163.5809 C.ar    1  UNL1        0.0311
      7 C         141.2448  143.3491  163.2386 C.ar    1  UNL1        0.0263
      8 C         141.0517  143.7852  161.8164 C.ar    1  UNL1        0.0933
      9 N         141.8266  144.7247  160.9407 N.ar    1  UNL1       -0.2132
     10 C         139.9552  141.7013  164.9020 C.ar    1  UNL1        0.0062
     11 C         139.1404  140.4447  164.9842 C.ar    1  UNL1        0.0036
     12 C         138.9482  139.7606  166.3053 C.ar    1  UNL1        0.0372
     13 C         139.5708  140.3332  167.5441 C.ar    1  UNL1        0.1468
     14 C         140.3856  141.5899  167.4618 C.ar    1  UNL1        0.0372
     15 C         140.5778  142.2739  166.1407 C.ar    1  UNL1        0.0036
     16 O         139.3785  139.6491  168.8651 O.3     1  UNL1       -0.4045
     17 C         139.9275  140.2672  170.1167 C.3     1  UNL1        0.5753
     18 F         140.4765  140.8853  171.3683 F       1  UNL1       -0.1328
     19 F         141.1229  139.3646  170.0381 F       1  UNL1       -0.1328
     20 F         138.7321  141.1699  170.1953 F       1  UNL1       -0.1328
     21 C         141.9151  145.9293  157.1729 C.3     1  UNL1        0.1108
     22 N         142.1597  145.9096  158.6527 N.pl3   1  UNL1       -0.3013
     23 H         142.8287  146.5133  159.0491 H       1  UNL1        0.1497
     24 N         138.1765  142.6424  159.3310 N.pl3   1  UNL1       -0.3176
     25 H         137.2891  143.0571  159.4305 H       1  UNL1        0.1482
     26 C         138.3117  141.3164  158.6429 C.3     1  UNL1        0.0896
     27 C         138.0770  140.0474  159.4073 C.3     1  UNL1        0.0385
     28 C         139.2420  139.2158  159.8560 C.3     1  UNL1        0.0739
     29 N         139.1924  138.5058  161.1765 N.3     1  UNL1       -0.2703
     30 C         137.8781  138.3039  161.8706 C.3     1  UNL1        0.0897
     31 C         140.4572  137.9977  161.8027 C.3     1  UNL1        0.0897
@<TRIPOS>BOND
     1    21    22    1
     2    22     1    1
     3     1     2   ar
     4     2     3   ar
     5     3    24    1
     6    24    26    1
     7    26    27    1
     8    27    28    1
     9    28    29    1
    10    29    30    1
    11    29    31    1
    12     3     4   ar
    13     4     5   ar
    14     5     6   ar
    15     6    10    1
    16    10    11   ar
    17    11    12   ar
    18    12    13   ar
    19    13    16    1
    20    16    17    1
    21    17    18    1
    22    17    19    1
    23    17    20    1
    24    13    14   ar
    25    14    15   ar
    26     6     7   ar
    27     7     8   ar
    28     8     9   ar
    29     9     1   ar
    30     8     4   ar
    31    15    10   ar
    32    22    23    1
    33    24    25    1
@<TRIPOS>MOLECULE
*****
 31 33 0 0 0
SMALL
GASTEIGER

@<TRIPOS>ATOM
      1 C         140.4913  145.1237  159.6829 C.ar    1  UNL1        0.2181
      2 N         141.9382  144.7333  159.7444 N.ar    1  UNL1       -0.1986
      3 C         142.4447  143.9098  160.8914 C.ar    1  UNL1        0.1388
      4 C         141.5042  143.4768  161.9767 C.ar    1  UNL1        0.0786
      5 S         141.7130  142.6663  163.2214 S.2     1  UNL1       -0.0826
      6 C         140.3951  142.5558  163.9291 C.ar    1  UNL1        0.0311
      7 C         139.3717  143.2981  163.1218 C.ar    1  UNL1        0.0263
      8 C         140.0572  143.8673  161.9151 C.ar    1  UNL1        0.0933
      9 N         139.5508  144.6908  160.7682 N.ar    1  UNL1       -0.2132
     10 C         140.1445  141.8304  165.2179 C.ar    1  UNL1        0.0062
     11 C         139.2996  140.5910  165.2289 C.ar    1  UNL1        0.0036
     12 C         139.0490  139.8657  166.5178 C.ar    1  UNL1        0.0372
     13 C         139.6432  140.3797  167.7956 C.ar    1  UNL1        0.1468
     14 C         140.4881  141.6190  167.7845 C.ar    1  UNL1        0.0372
     15 C         140.7387  142.3444  166.4957 C.ar    1  UNL1        0.0036
     16 O         139.3926  139.6543  169.0844 O.3     1  UNL1       -0.4045
     17 C         139.9661  140.1821  170.3659 C.3     1  UNL1        0.5753
     18 F         140.5396  140.7100  171.6475 F       1  UNL1       -0.1328
     19 F         138.8563  141.1879  170.4483 F       1  UNL1       -0.1328
     20 F         141.0759  139.1764  170.2836 F       1  UNL1       -0.1328
     21 C         140.5906  145.7877  157.1730 C.3     1  UNL1        0.1108
     22 N         139.9848  145.9472  158.5359 N.pl3   1  UNL1       -0.3013
     23 H         139.2547  146.5924  158.6777 H       1  UNL1        0.1497
     24 N         143.8917  143.5194  160.9529 N.pl3   1  UNL1       -0.3176
     25 H         144.5256  144.0600  161.4775 H       1  UNL1        0.1482
     26 C         144.3730  142.3053  160.2152 C.3     1  UNL1        0.0896
     27 C         143.9373  140.9389  160.6548 C.3     1  UNL1        0.0385
     28 C         144.4613  140.3607  161.9359 C.3     1  UNL1        0.0739
     29 N         143.8574  139.1067  162.4952 N.3     1  UNL1       -0.2703
     30 C         143.6000  137.9331  161.5972 C.3     1  UNL1        0.0897
     31 C         143.5110  139.0263  163.9524 C.3     1  UNL1        0.0897
@<TRIPOS>BOND
     1    21    22    1
     2    22     1    1
     3     1     2   ar
     4     2     3   ar
     5     3    24    1
     6    24    26    1
     7    26    27    1
     8    27    28    1
     9    28    29    1
    10    29    30    1
    11    29    31    1
    12     3     4   ar
    13     4     5   ar
    14     5     6   ar
    15     6    10    1
    16    10    11   ar
    17    11    12   ar
    18    12    13   ar
    19    13    16    1
    20    16    17    1
    21    17    18    1
    22    17    19    1
    23    17    20    1
    24    13    14   ar
    25    14    15   ar
    26     6     7   ar
    27     7     8   ar
    28     8     9   ar
    29     9     1   ar
    30     8     4   ar
    31    15    10   ar
    32    22    23    1
    33    24    25    1
@<TRIPOS>MOLECULE
*****
 31 33 0 0 0
SMALL
GASTEIGER

@<TRIPOS>ATOM
      1 C         139.8423  140.5646  169.1087 C.ar    1  UNL1        0.2181
      2 N         139.0251  139.5843  168.3208 N.ar    1  UNL1       -0.1986
      3 C         138.8767  139.7525  166.8376 C.ar    1  UNL1        0.1388
      4 C         139.5455  140.9011  166.1425 C.ar    1  UNL1        0.0786
      5 S         139.5788  141.3212  164.7029 S.2     1  UNL1       -0.0826
      6 C         140.4166  142.5613  164.6012 C.ar    1  UNL1        0.0311
      7 C         140.9011  142.9076  165.9779 C.ar    1  UNL1        0.0263
      8 C         140.3628  141.8815  166.9305 C.ar    1  UNL1        0.0933
      9 N         140.5112  141.7132  168.4136 N.ar    1  UNL1       -0.2132
     10 C         140.7171  143.3216  163.3436 C.ar    1  UNL1        0.0062
     11 C         140.2733  144.7478  163.2052 C.ar    1  UNL1        0.0036
     12 C         140.5738  145.5080  161.9476 C.ar    1  UNL1        0.0372
     13 C         141.3182  144.8422  160.8283 C.ar    1  UNL1        0.1468
     14 C         141.7620  143.4161  160.9667 C.ar    1  UNL1        0.0372
     15 C         141.4614  142.6558  162.2244 C.ar    1  UNL1        0.0036
     16 O         141.6187  145.6026  159.5707 O.3     1  UNL1       -0.4045
     17 C         141.2496  145.0228  158.2374 C.3     1  UNL1        0.5753
     18 F         140.8806  144.4430  156.9042 F       1  UNL1       -0.1328
     19 F         139.8114  144.9672  158.6597 F       1  UNL1       -0.1328
     20 F         142.6879  145.0784  157.8152 F       1  UNL1       -0.1328
     21 C         140.8553  141.3426  171.3712 C.3     1  UNL1        0.1108
     22 N         139.9907  140.3964  170.5919 N.pl3   1  UNL1       -0.3013
     23 H         139.5207  139.6650  171.0539 H       1  UNL1        0.1497
     24 N         138.0594  138.7720  166.0497 N.pl3   1  UNL1       -0.3176
     25 H         137.1051  138.9481  165.8833 H       1  UNL1        0.1482
     26 C         138.6960  137.5234  165.5152 C.3     1  UNL1        0.0896
     27 C         139.6393  137.6015  164.3516 C.3     1  UNL1        0.0385
     28 C         141.0990  137.3182  164.5491 C.3     1  UNL1        0.0739
     29 N         142.0635  138.4507  164.7419 N.3     1  UNL1       -0.2703
     30 C         142.5901  139.1981  163.5528 C.3     1  UNL1        0.0897
     31 C         142.5013  138.8358  166.1240 C.3     1  UNL1        0.0897
@<TRIPOS>BOND
     1    21    22    1
     2    22     1    1
     3     1     2   ar
     4     2     3   ar
     5     3    24    1
     6    24    26    1
     7    26    27    1
     8    27    28    1
     9    28    29    1
    10    29    30    1
    11    29    31    1
    12     3     4   ar
    13     4     5   ar
    14     5     6   ar
    15     6    10    1
    16    10    11   ar
    17    11    12   ar
    18    12    13   ar
    19    13    16    1
    20    16    17    1
    21    17    18    1
    22    17    19    1
    23    17    20    1
    24    13    14   ar
    25    14    15   ar
    26     6     7   ar
    27     7     8   ar
    28     8     9   ar
    29     9     1   ar
    30     8     4   ar
    31    15    10   ar
    32    22    23    1
    33    24    25    1
@<TRIPOS>MOLECULE
*****
 31 33 0 0 0
SMALL
GASTEIGER

@<TRIPOS>ATOM
      1 C         143.2621  143.3264  159.0453 C.ar    1  UNL1        0.2181
      2 N         143.7017  141.8925  159.0684 N.ar    1  UNL1       -0.1986
      3 C         143.6524  141.1134  160.3493 C.ar    1  UNL1        0.1388
      4 C         143.1636  141.7683  161.6071 C.ar    1  UNL1        0.0786
      5 S         143.0039  141.2571  163.0082 S.2     1  UNL1       -0.0826
      6 C         142.4657  142.3751  163.8510 C.ar    1  UNL1        0.0311
      7 C         142.2927  143.5773  162.9709 C.ar    1  UNL1        0.0263
      8 C         142.7240  143.2023  161.5840 C.ar    1  UNL1        0.0933
      9 N         142.7733  143.9813  160.3031 N.ar    1  UNL1       -0.2132
     10 C         142.1550  142.3034  165.3168 C.ar    1  UNL1        0.0062
     11 C         143.2684  142.3289  166.3216 C.ar    1  UNL1        0.0036
     12 C         142.9576  142.2572  167.7873 C.ar    1  UNL1        0.0372
     13 C         141.5335  142.1602  168.2482 C.ar    1  UNL1        0.1468
     14 C         140.4201  142.1347  167.2434 C.ar    1  UNL1        0.0372
     15 C         140.7309  142.2064  165.7777 C.ar    1  UNL1        0.0036
     16 O         141.2228  142.0886  169.7140 O.3     1  UNL1       -0.4045
     17 C         140.2481  143.0530  170.3220 C.3     1  UNL1        0.5753
     18 F         139.2734  144.0175  170.9301 F       1  UNL1       -0.1328
     19 F         141.2493  144.1598  170.1714 F       1  UNL1       -0.1328
     20 F         139.2470  141.9462  170.4727 F       1  UNL1       -0.1328
     21 C         142.5530  143.6230  156.5636 C.3     1  UNL1        0.1108
     22 N         143.3114  144.1055  157.7644 N.pl3   1  UNL1       -0.3013
     23 H         143.8414  144.9335  157.7119 H       1  UNL1        0.1497
     24 N         144.0920  139.6794  160.3723 N.pl3   1  UNL1       -0.3176
     25 H         144.9969  139.4468  160.6826 H       1  UNL1        0.1482
     26 C         143.1528  138.5997  159.9226 C.3     1  UNL1        0.0896
     27 C         142.3342  137.8498  160.9313 C.3     1  UNL1        0.0385
     28 C         141.0521  138.4370  161.4426 C.3     1  UNL1        0.0739
     29 N         140.3271  137.7802  162.5798 N.3     1  UNL1       -0.2703
     30 C         138.8279  137.7967  162.6229 C.3     1  UNL1        0.0897
     31 C         141.1016  137.1068  163.6738 C.3     1  UNL1        0.0897
@<TRIPOS>BOND
     1    21    22    1
     2    22     1    1
     3     1     2   ar
     4     2     3   ar
     5     3    24    1
     6    24    26    1
     7    26    27    1
     8    27    28    1
     9    28    29    1
    10    29    30    1
    11    29    31    1
    12     3     4   ar
    13     4     5   ar
    14     5     6   ar
    15     6    10    1
    16    10    11   ar
    17    11    12   ar
    18    12    13   ar
    19    13    16    1
    20    16    17    1
    21    17    18    1
    22    17    19    1
    23    17    20    1
    24    13    14   ar
    25    14    15   ar
    26     6     7   ar
    27     7     8   ar
    28     8     9   ar
    29     9     1   ar
    30     8     4   ar
    31    15    10   ar
    32    22    23    1
    33    24    25    1
@<TRIPOS>MOLECULE
*****
 31 33 0 0 0
SMALL
GASTEIGER

@<TRIPOS>ATOM
      1 C         140.3046  144.8193  159.0824 C.ar    1  UNL1        0.2181
      2 N         139.2722  143.7313  159.0997 N.ar    1  UNL1       -0.1986
      3 C         139.0815  142.8977  160.3322 C.ar    1  UNL1        0.1388
      4 C         139.9234  143.1522  161.5473 C.ar    1  UNL1        0.0786
      5 S         139.9619  142.4981  162.8966 S.2     1  UNL1       -0.0826
      6 C         141.0181  143.1818  163.7132 C.ar    1  UNL1        0.0311
      7 C         141.6324  144.2585  162.8686 C.ar    1  UNL1        0.0263
      8 C         140.9558  144.2403  161.5300 C.ar    1  UNL1        0.0933
      9 N         141.1464  145.0738  160.2975 N.ar    1  UNL1       -0.2132
     10 C         141.3941  142.8475  165.1263 C.ar    1  UNL1        0.0062
     11 C         142.8264  142.5711  165.4759 C.ar    1  UNL1        0.0036
     12 C         143.2023  142.2368  166.8891 C.ar    1  UNL1        0.0372
     13 C         142.1461  142.1789  167.9526 C.ar    1  UNL1        0.1468
     14 C         140.7138  142.4553  167.6029 C.ar    1  UNL1        0.0372
     15 C         140.3379  142.7896  166.1898 C.ar    1  UNL1        0.0036
     16 O         142.5221  141.8446  169.3657 O.3     1  UNL1       -0.4045
     17 C         143.1636  142.8836  170.2369 C.3     1  UNL1        0.5753
     18 F         143.8052  143.9225  171.1081 F       1  UNL1       -0.1328
     19 F         141.8537  143.6072  170.3386 F       1  UNL1       -0.1328
     20 F         144.4736  142.1599  170.1352 F       1  UNL1       -0.1328
     21 C         140.5418  144.9978  156.5014 C.3     1  UNL1        0.1108
     22 N         140.4952  145.6528  157.8500 N.pl3   1  UNL1       -0.3013
     23 H         140.5898  146.6298  157.9262 H       1  UNL1        0.1497
     24 N         138.0490  141.8097  160.3495 N.pl3   1  UNL1       -0.3176
     25 H         137.0957  142.0342  160.2497 H       1  UNL1        0.1482
     26 C         138.4691  140.3798  160.5187 C.3     1  UNL1        0.0896
     27 C         137.7958  139.5167  161.5443 C.3     1  UNL1        0.0385
     28 C         138.2726  138.1131  161.7730 C.3     1  UNL1        0.0739
     29 N         139.2881  137.8303  162.8403 N.3     1  UNL1       -0.2703
     30 C         138.8633  137.7459  164.2763 C.3     1  UNL1        0.0897
     31 C         140.7284  137.6320  162.4713 C.3     1  UNL1        0.0897
@<TRIPOS>BOND
     1    21    22    1
     2    22     1    1
     3     1     2   ar
     4     2     3   ar
     5     3    24    1
     6    24    26    1
     7    26    27    1
     8    27    28    1
     9    28    29    1
    10    29    30    1
    11    29    31    1
    12     3     4   ar
    13     4     5   ar
    14     5     6   ar
    15     6    10    1
    16    10    11   ar
    17    11    12   ar
    18    12    13   ar
    19    13    16    1
    20    16    17    1
    21    17    18    1
    22    17    19    1
    23    17    20    1
    24    13    14   ar
    25    14    15   ar
    26     6     7   ar
    27     7     8   ar
    28     8     9   ar
    29     9     1   ar
    30     8     4   ar
    31    15    10   ar
    32    22    23    1
    33    24    25    1
@<TRIPOS>MOLECULE
*****
 31 33 0 0 0
SMALL
GASTEIGER

@<TRIPOS>ATOM
      1 C         143.4353  140.3001  159.3443 C.ar    1  UNL1        0.2181
      2 N         142.4908  141.4626  159.2639 N.ar    1  UNL1       -0.1986
      3 C         141.7316  141.8977  160.4823 C.ar    1  UNL1        0.1388
      4 C         141.9169  141.1703  161.7809 C.ar    1  UNL1        0.0786
      5 S         141.3099  141.3690  163.1381 S.2     1  UNL1       -0.0826
      6 C         141.8794  140.3294  164.0572 C.ar    1  UNL1        0.0311
      7 C         142.8383  139.4881  163.2681 C.ar    1  UNL1        0.0263
      8 C         142.8615  140.0078  161.8612 C.ar    1  UNL1        0.0933
      9 N         143.6207  139.5727  160.6429 N.ar    1  UNL1       -0.2132
     10 C         141.5481  140.1606  165.5104 C.ar    1  UNL1        0.0062
     11 C         142.6482  139.9884  166.5154 C.ar    1  UNL1        0.0036
     12 C         142.3168  139.8197  167.9686 C.ar    1  UNL1        0.0372
     13 C         140.8853  139.8230  168.4168 C.ar    1  UNL1        0.1468
     14 C         139.7852  139.9951  167.4118 C.ar    1  UNL1        0.0372
     15 C         140.1166  140.1639  165.9586 C.ar    1  UNL1        0.0036
     16 O         140.5540  139.6542  169.8700 O.3     1  UNL1       -0.4045
     17 C         140.5913  140.8382  170.7902 C.3     1  UNL1        0.5753
     18 F         140.6286  142.0222  171.7104 F       1  UNL1       -0.1328
     19 F         139.2148  141.2303  170.3415 F       1  UNL1       -0.1328
     20 F         141.9678  140.4461  171.2390 F       1  UNL1       -0.1328
     21 C         144.8876  140.8839  157.2706 C.3     1  UNL1        0.1108
     22 N         144.1946  139.8650  158.1259 N.pl3   1  UNL1       -0.3013
     23 H         144.2380  138.9107  157.8877 H       1  UNL1        0.1497
     24 N         140.7870  143.0602  160.4018 N.pl3   1  UNL1       -0.3176
     25 H         139.8309  142.9063  160.2250 H       1  UNL1        0.1482
     26 C         141.2993  144.4573  160.5908 C.3     1  UNL1        0.0896
     27 C         140.3410  145.6110  160.6120 C.3     1  UNL1        0.0385
     28 C         139.6751  146.0094  161.8957 C.3     1  UNL1        0.0739
     29 N         139.3395  144.9676  162.9215 N.3     1  UNL1       -0.2703
     30 C         138.1377  144.0900  162.7338 C.3     1  UNL1        0.0897
     31 C         140.2060  144.8035  164.1349 C.3     1  UNL1        0.0897
@<TRIPOS>BOND
     1    21    22    1
     2    22     1    1
     3     1     2   ar
     4     2     3   ar
     5     3    24    1
     6    24    26    1
     7    26    27    1
     8    27    28    1
     9    28    29    1
    10    29    30    1
    11    29    31    1
    12     3     4   ar
    13     4     5   ar
    14     5     6   ar
    15     6    10    1
    16    10    11   ar
    17    11    12   ar
    18    12    13   ar
    19    13    16    1
    20    16    17    1
    21    17    18    1
    22    17    19    1
    23    17    20    1
    24    13    14   ar
    25    14    15   ar
    26     6     7   ar
    27     7     8   ar
    28     8     9   ar
    29     9     1   ar
    30     8     4   ar
    31    15    10   ar
    32    22    23    1
    33    24    25    1
@<TRIPOS>MOLECULE
*****
 31 33 0 0 0
SMALL
GASTEIGER

@<TRIPOS>ATOM
      1 C         142.6531  138.1408  159.7879 C.ar    1  UNL1        0.2181
      2 N         141.6498  139.2327  159.5629 N.ar    1  UNL1       -0.1986
      3 C         141.2561  140.1346  160.6950 C.ar    1  UNL1        0.1388
      4 C         141.8658  139.9444  162.0522 C.ar    1  UNL1        0.0786
      5 S         141.6744  140.6726  163.3496 S.2     1  UNL1       -0.0826
      6 C         142.5595  140.0306  164.3764 C.ar    1  UNL1        0.0311
      7 C         143.2980  138.9056  163.7137 C.ar    1  UNL1        0.0263
      8 C         142.8692  138.8523  162.2773 C.ar    1  UNL1        0.0933
      9 N         143.2629  137.9505  161.1451 N.ar    1  UNL1       -0.2132
     10 C         142.6843  140.4414  165.8136 C.ar    1  UNL1        0.0062
     11 C         143.0099  141.8637  166.1616 C.ar    1  UNL1        0.0036
     12 C         143.1346  142.2745  167.5989 C.ar    1  UNL1        0.0372
     13 C         142.9338  141.2630  168.6882 C.ar    1  UNL1        0.1468
     14 C         142.6082  139.8407  168.3402 C.ar    1  UNL1        0.0372
     15 C         142.4834  139.4300  166.9029 C.ar    1  UNL1        0.0036
     16 O         143.0586  141.6738  170.1254 O.3     1  UNL1       -0.4045
     17 C         141.8274  141.9565  170.9343 C.3     1  UNL1        0.5753
     18 F         140.5962  142.2391  171.7431 F       1  UNL1       -0.1328
     19 F         141.7406  143.3241  170.3244 F       1  UNL1       -0.1328
     20 F         141.9141  140.5888  171.5442 F       1  UNL1       -0.1328
     21 C         142.7504  137.6386  157.2407 C.3     1  UNL1        0.1108
     22 N         143.0468  137.2389  158.6558 N.pl3   1  UNL1       -0.3013
     23 H         143.4998  136.3847  158.8415 H       1  UNL1        0.1497
     24 N         140.2526  141.2266  160.4699 N.pl3   1  UNL1       -0.3176
     25 H         140.2707  142.0352  161.0313 H       1  UNL1        0.1482
     26 C         139.2216  141.0867  159.3895 C.3     1  UNL1        0.0896
     27 C         138.2473  139.9467  159.4257 C.3     1  UNL1        0.0385
     28 C         137.3353  139.7768  160.6044 C.3     1  UNL1        0.0739
     29 N         137.9069  139.4718  161.9573 N.3     1  UNL1       -0.2703
     30 C         138.5480  138.1411  162.2180 C.3     1  UNL1        0.0897
     31 C         137.8373  140.4977  163.0494 C.3     1  UNL1        0.0897
@<TRIPOS>BOND
     1    21    22    1
     2    22     1    1
     3     1     2   ar
     4     2     3   ar
     5     3    24    1
     6    24    26    1
     7    26    27    1
     8    27    28    1
     9    28    29    1
    10    29    30    1
    11    29    31    1
    12     3     4   ar
    13     4     5   ar
    14     5     6   ar
    15     6    10    1
    16    10    11   ar
    17    11    12   ar
    18    12    13   ar
    19    13    16    1
    20    16    17    1
    21    17    18    1
    22    17    19    1
    23    17    20    1
    24    13    14   ar
    25    14    15   ar
    26     6     7   ar
    27     7     8   ar
    28     8     9   ar
    29     9     1   ar
    30     8     4   ar
    31    15    10   ar
    32    22    23    1
    33    24    25    1
@<TRIPOS>MOLECULE
*****
 31 33 0 0 0
SMALL
GASTEIGER

@<TRIPOS>ATOM
      1 C         138.4066  140.3572  158.3804 C.ar    1  UNL1        0.2181
      2 N         139.8159  140.8679  158.4328 N.ar    1  UNL1       -0.1986
      3 C         140.5163  141.0024  159.7525 C.ar    1  UNL1        0.1388
      4 C         139.8073  140.6263  161.0196 C.ar    1  UNL1        0.0786
      5 S         140.2380  140.6515  162.4562 S.2     1  UNL1       -0.0826
      6 C         139.0948  140.1563  163.2916 C.ar    1  UNL1        0.0311
      7 C         137.9575  139.8252  162.3713 C.ar    1  UNL1        0.0263
      8 C         138.3978  140.1156  160.9671 C.ar    1  UNL1        0.0933
      9 N         137.6975  139.9811  159.6475 N.ar    1  UNL1       -0.2132
     10 C         139.0898  140.0169  164.7851 C.ar    1  UNL1        0.0062
     11 C         138.1067  139.0991  165.4493 C.ar    1  UNL1        0.0036
     12 C         138.1017  138.9597  166.9429 C.ar    1  UNL1        0.0372
     13 C         139.0798  139.7380  167.7721 C.ar    1  UNL1        0.1468
     14 C         140.0629  140.6557  167.1079 C.ar    1  UNL1        0.0372
     15 C         140.0679  140.7951  165.6144 C.ar    1  UNL1        0.0036
     16 O         139.0747  139.5985  169.2656 O.3     1  UNL1       -0.4045
     17 C         139.9978  140.4359  170.1002 C.3     1  UNL1        0.5753
     18 F         140.9208  141.2734  170.9349 F       1  UNL1       -0.1328
     19 F         138.9609  141.5182  170.1610 F       1  UNL1       -0.1328
     20 F         141.0346  139.3537  170.0394 F       1  UNL1       -0.1328
     21 C         136.7005  141.2518  156.6371 C.3     1  UNL1        0.1108
     22 N         137.7061  140.2226  157.0607 N.pl3   1  UNL1       -0.3013
     23 H         137.9065  139.4589  156.4727 H       1  UNL1        0.1497
     24 N         141.9258  141.5131  159.8048 N.pl3   1  UNL1       -0.3176
     25 H         142.1025  142.4789  159.7320 H       1  UNL1        0.1482
     26 C         143.0660  140.5524  159.9681 C.3     1  UNL1        0.0896
     27 C         144.0476  140.7368  161.0873 C.3     1  UNL1        0.0385
     28 C         144.0650  142.0186  161.8661 C.3     1  UNL1        0.0739
     29 N         144.4058  142.0043  163.3268 N.3     1  UNL1       -0.2703
     30 C         145.7007  141.4047  163.7890 C.3     1  UNL1        0.0897
     31 C         143.4515  142.5895  164.3253 C.3     1  UNL1        0.0897
@<TRIPOS>BOND
     1    21    22    1
     2    22     1    1
     3     1     2   ar
     4     2     3   ar
     5     3    24    1
     6    24    26    1
     7    26    27    1
     8    27    28    1
     9    28    29    1
    10    29    30    1
    11    29    31    1
    12     3     4   ar
    13     4     5   ar
    14     5     6   ar
    15     6    10    1
    16    10    11   ar
    17    11    12   ar
    18    12    13   ar
    19    13    16    1
    20    16    17    1
    21    17    18    1
    22    17    19    1
    23    17    20    1
    24    13    14   ar
    25    14    15   ar
    26     6     7   ar
    27     7     8   ar
    28     8     9   ar
    29     9     1   ar
    30     8     4   ar
    31    15    10   ar
    32    22    23    1
    33    24    25    1
