@<TRIPOS>MOLECULE
*****
 31 34 0 0 0
SMALL
GASTEIGER

@<TRIPOS>ATOM
      1 C         137.8030  144.2052  163.3333 C.3     1  UNL1        0.1387
      2 C         139.3458  141.4358  165.5728 C.ar    1  UNL1        0.0617
      3 C         138.4833  141.8603  164.4213 C.ar    1  UNL1        0.0326
      4 C         138.5235  143.3576  164.3394 C.ar    1  UNL1        0.0977
      5 N         139.4108  143.8583  165.4404 N.ar    1  UNL1       -0.1683
      6 N         139.9190  142.6706  166.2026 N.ar    1  UNL1       -0.2340
      7 C         140.8388  142.7106  167.3868 C.ar    1  UNL1        0.0824
      8 C         140.3580  143.2737  168.6913 C.ar    1  UNL1        0.0191
      9 C         141.2779  143.3136  169.8754 C.ar    1  UNL1        0.0015
     10 C         142.6786  142.7905  169.7550 C.ar    1  UNL1        0.0001
     11 C         143.1594  142.2274  168.4505 C.ar    1  UNL1        0.0015
     12 C         142.2395  142.1874  167.2664 C.ar    1  UNL1        0.0191
     13 C         139.5918  140.0242  166.0166 C.3     1  UNL1        0.0459
     14 C         137.6971  138.4987  166.9294 C.3     1  UNL1        0.0004
     15 C         138.8245  139.4574  167.1742 C.3     1  UNL1        0.0059
     16 C         139.1846  139.8492  168.5766 C.3     1  UNL1        0.0004
     17 N         138.5741  145.1460  162.4555 N.3     1  UNL1       -0.1732
     18 H         138.9268  145.8891  163.0586 H       1  UNL1        0.1492
     19 S         139.7421  144.6425  161.6603 S.O2    1  UNL1        0.0620
     20 O         138.8487  143.6506  160.9762 O.2     1  UNL1       -0.1529
     21 O         140.6354  145.6344  162.3445 O.2     1  UNL1       -0.1529
     22 C         140.9101  144.1390  160.8652 C.ar    1  UNL1        0.1394
     23 C         141.1453  144.6476  159.4739 C.ar    1  UNL1        0.0214
     24 C         142.3133  144.1441  158.6787 C.ar    1  UNL1        0.0015
     25 C         143.2461  143.1320  159.2749 C.ar    1  UNL1        0.0016
     26 C         143.0109  142.6233  160.6664 C.ar    1  UNL1        0.0190
     27 C         143.9436  141.6111  161.2626 C.ar    1  UNL1        0.0031
     28 C         143.7084  141.1025  162.6539 C.ar    1  UNL1        0.0207
     29 C         142.5403  141.6060  163.4491 C.ar    1  UNL1        0.0989
     30 N         141.6076  142.6181  162.8528 N.ar    1  UNL1       -0.2425
     31 C         141.8429  143.1268  161.4615 C.ar    1  UNL1        0.0998
@<TRIPOS>BOND
     1    14    15    1
     2    15    16    1
     3    15    13    1
     4    13     2    1
     5     2     3   ar
     6     3     4   ar
     7     4     1    1
     8     1    17    1
     9    17    19    1
    10    19    20    2
    11    19    21    2
    12    19    22    1
    13    22    23   ar
    14    23    24   ar
    15    24    25   ar
    16    25    26   ar
    17    26    27   ar
    18    27    28   ar
    19    28    29   ar
    20    29    30   ar
    21    30    31   ar
    22     4     5   ar
    23     5     6   ar
    24     6     7    1
    25     7     8   ar
    26     8     9   ar
    27     9    10   ar
    28    10    11   ar
    29    11    12   ar
    30     6     2   ar
    31    12     7   ar
    32    31    22   ar
    33    31    26   ar
    34    17    18    1
@<TRIPOS>MOLECULE
*****
 31 34 0 0 0
SMALL
GASTEIGER

@<TRIPOS>ATOM
      1 C         145.5969  141.8868  163.2401 C.3     1  UNL1        0.1387
      2 C         143.0781  140.2866  165.7222 C.ar    1  UNL1        0.0617
      3 C         143.9644  140.1973  164.5153 C.ar    1  UNL1        0.0326
      4 C         144.6275  141.5297  164.3276 C.ar    1  UNL1        0.0977
      5 N         144.1508  142.4424  165.4184 N.ar    1  UNL1       -0.1683
      6 N         143.1933  141.6741  166.2803 N.ar    1  UNL1       -0.2340
      7 C         142.4767  142.2008  167.4882 C.ar    1  UNL1        0.0824
      8 C         143.2164  142.3782  168.7810 C.ar    1  UNL1        0.0191
      9 C         142.4997  142.9049  169.9889 C.ar    1  UNL1        0.0015
     10 C         141.0434  143.2542  169.9040 C.ar    1  UNL1        0.0001
     11 C         140.3037  143.0767  168.6112 C.ar    1  UNL1        0.0015
     12 C         141.0204  142.5500  167.4033 C.ar    1  UNL1        0.0191
     13 C         142.2261  139.1822  166.2739 C.3     1  UNL1        0.0459
     14 C         141.0598  137.5058  164.6678 C.3     1  UNL1        0.0004
     15 C         141.0045  138.7333  165.5281 C.3     1  UNL1        0.0059
     16 C         139.7275  139.5119  165.6426 C.3     1  UNL1        0.0004
     17 N         145.0982  142.4817  161.9565 N.3     1  UNL1       -0.1732
     18 H         144.9949  141.7116  161.2956 H       1  UNL1        0.1492
     19 S         143.8079  143.2463  161.9357 S.O2    1  UNL1        0.0620
     20 O         144.5276  144.4736  162.4111 O.2     1  UNL1       -0.1529
     21 O         143.0883  142.0191  161.4602 O.2     1  UNL1       -0.1529
     22 C         142.5176  144.0110  161.9148 C.ar    1  UNL1        0.1394
     23 C         141.7946  144.2971  163.1975 C.ar    1  UNL1        0.0214
     24 C         140.5043  145.0618  163.1767 C.ar    1  UNL1        0.0015
     25 C         139.9370  145.5403  161.8732 C.ar    1  UNL1        0.0016
     26 C         140.6601  145.2542  160.5904 C.ar    1  UNL1        0.0190
     27 C         140.0928  145.7327  159.2869 C.ar    1  UNL1        0.0031
     28 C         140.8158  145.4465  158.0042 C.ar    1  UNL1        0.0207
     29 C         142.1061  144.6819  158.0251 C.ar    1  UNL1        0.0989
     30 N         142.6734  144.2034  159.3286 N.ar    1  UNL1       -0.2425
     31 C         141.9504  144.4895  160.6112 C.ar    1  UNL1        0.0998
@<TRIPOS>BOND
     1    14    15    1
     2    15    16    1
     3    15    13    1
     4    13     2    1
     5     2     3   ar
     6     3     4   ar
     7     4     1    1
     8     1    17    1
     9    17    19    1
    10    19    20    2
    11    19    21    2
    12    19    22    1
    13    22    23   ar
    14    23    24   ar
    15    24    25   ar
    16    25    26   ar
    17    26    27   ar
    18    27    28   ar
    19    28    29   ar
    20    29    30   ar
    21    30    31   ar
    22     4     5   ar
    23     5     6   ar
    24     6     7    1
    25     7     8   ar
    26     8     9   ar
    27     9    10   ar
    28    10    11   ar
    29    11    12   ar
    30     6     2   ar
    31    12     7   ar
    32    31    22   ar
    33    31    26   ar
    34    17    18    1
@<TRIPOS>MOLECULE
*****
 31 34 0 0 0
SMALL
GASTEIGER

@<TRIPOS>ATOM
      1 C         145.0714  141.1890  163.2079 C.3     1  UNL1        0.1387
      2 C         142.4758  138.7972  164.8228 C.ar    1  UNL1        0.0617
      3 C         143.3757  139.1784  163.6849 C.ar    1  UNL1        0.0326
      4 C         144.0778  140.4512  164.0555 C.ar    1  UNL1        0.0977
      5 N         143.6117  140.8565  165.4224 N.ar    1  UNL1       -0.1683
      6 N         142.6217  139.8344  165.8967 N.ar    1  UNL1       -0.2340
      7 C         141.9036  139.8470  167.2135 C.ar    1  UNL1        0.0824
      8 C         142.6331  139.4717  168.4693 C.ar    1  UNL1        0.0191
      9 C         141.9150  139.4844  169.7861 C.ar    1  UNL1        0.0015
     10 C         140.4672  139.8723  169.8471 C.ar    1  UNL1        0.0001
     11 C         139.7377  140.2476  168.5914 C.ar    1  UNL1        0.0015
     12 C         140.4559  140.2349  167.2746 C.ar    1  UNL1        0.0191
     13 C         141.5863  137.5907  164.8773 C.3     1  UNL1        0.0459
     14 C         139.0034  137.6489  165.1521 C.3     1  UNL1        0.0004
     15 C         140.2160  137.6411  164.2692 C.3     1  UNL1        0.0059
     16 C         140.0583  137.6836  162.7781 C.3     1  UNL1        0.0004
     17 N         144.6671  141.7109  161.8609 N.3     1  UNL1       -0.1732
     18 H         144.4537  140.8984  161.2823 H       1  UNL1        0.1492
     19 S         143.5021  142.6477  161.7383 S.O2    1  UNL1        0.0620
     20 O         144.3287  143.7526  162.3266 O.2     1  UNL1       -0.1529
     21 O         142.6755  141.5429  161.1500 O.2     1  UNL1       -0.1529
     22 C         142.3371  143.5846  161.6157 C.ar    1  UNL1        0.1394
     23 C         142.0981  144.3200  160.3304 C.ar    1  UNL1        0.0214
     24 C         140.9331  145.2569  160.2078 C.ar    1  UNL1        0.0015
     25 C         140.0070  145.4583  161.3705 C.ar    1  UNL1        0.0016
     26 C         140.2460  144.7229  162.6559 C.ar    1  UNL1        0.0190
     27 C         139.3200  144.9243  163.8186 C.ar    1  UNL1        0.0031
     28 C         139.5590  144.1889  165.1038 C.ar    1  UNL1        0.0207
     29 C         140.7240  143.2520  165.2264 C.ar    1  UNL1        0.0989
     30 N         141.6500  143.0506  164.0637 N.ar    1  UNL1       -0.2425
     31 C         141.4110  143.7860  162.7785 C.ar    1  UNL1        0.0998
@<TRIPOS>BOND
     1    14    15    1
     2    15    16    1
     3    15    13    1
     4    13     2    1
     5     2     3   ar
     6     3     4   ar
     7     4     1    1
     8     1    17    1
     9    17    19    1
    10    19    20    2
    11    19    21    2
    12    19    22    1
    13    22    23   ar
    14    23    24   ar
    15    24    25   ar
    16    25    26   ar
    17    26    27   ar
    18    27    28   ar
    19    28    29   ar
    20    29    30   ar
    21    30    31   ar
    22     4     5   ar
    23     5     6   ar
    24     6     7    1
    25     7     8   ar
    26     8     9   ar
    27     9    10   ar
    28    10    11   ar
    29    11    12   ar
    30     6     2   ar
    31    12     7   ar
    32    31    22   ar
    33    31    26   ar
    34    17    18    1
@<TRIPOS>MOLECULE
*****
 31 34 0 0 0
SMALL
GASTEIGER

@<TRIPOS>ATOM
      1 C         138.8682  144.7524  163.2665 C.3     1  UNL1        0.1387
      2 C         141.5258  142.9288  165.4292 C.ar    1  UNL1        0.0617
      3 C         141.1087  143.5931  164.1506 C.ar    1  UNL1        0.0326
      4 C         139.6855  144.0416  164.3042 C.ar    1  UNL1        0.0977
      5 N         139.2231  143.6544  165.6776 N.ar    1  UNL1       -0.1683
      6 N         140.3604  142.9667  166.3730 N.ar    1  UNL1       -0.2340
      7 C         140.3367  142.4139  167.7671 C.ar    1  UNL1        0.0824
      8 C         140.2722  140.9312  167.9851 C.ar    1  UNL1        0.0191
      9 C         140.2484  140.3785  169.3793 C.ar    1  UNL1        0.0015
     10 C         140.2892  141.3084  170.5556 C.ar    1  UNL1        0.0001
     11 C         140.3537  142.7911  170.3376 C.ar    1  UNL1        0.0015
     12 C         140.3775  143.3438  168.9434 C.ar    1  UNL1        0.0191
     13 C         142.8719  142.3314  165.7140 C.3     1  UNL1        0.0459
     14 C         142.3566  139.8648  165.0814 C.3     1  UNL1        0.0004
     15 C         143.2781  141.0480  165.0524 C.3     1  UNL1        0.0059
     16 C         144.6058  140.9477  164.3618 C.3     1  UNL1        0.0004
     17 N         137.8517  143.9952  162.4642 N.3     1  UNL1       -0.1732
     18 H         137.7193  144.5113  161.5945 H       1  UNL1        0.1492
     19 S         138.1081  142.5667  162.0854 S.O2    1  UNL1        0.0620
     20 O         136.9605  142.1320  162.9479 O.2     1  UNL1       -0.1529
     21 O         139.2558  143.0013  161.2229 O.2     1  UNL1       -0.1529
     22 C         138.3645  141.1381  161.7066 C.ar    1  UNL1        0.1394
     23 C         138.4434  140.7483  160.2603 C.ar    1  UNL1        0.0214
     24 C         138.6998  139.3197  159.8815 C.ar    1  UNL1        0.0015
     25 C         138.8772  138.2810  160.9489 C.ar    1  UNL1        0.0016
     26 C         138.7982  138.6708  162.3953 C.ar    1  UNL1        0.0190
     27 C         138.9756  137.6320  163.4628 C.ar    1  UNL1        0.0031
     28 C         138.8967  138.0219  164.9090 C.ar    1  UNL1        0.0207
     29 C         138.6403  139.4504  165.2879 C.ar    1  UNL1        0.0989
     30 N         138.4629  140.4892  164.2204 N.ar    1  UNL1       -0.2425
     31 C         138.5419  140.0993  162.7741 C.ar    1  UNL1        0.0998
@<TRIPOS>BOND
     1    14    15    1
     2    15    16    1
     3    15    13    1
     4    13     2    1
     5     2     3   ar
     6     3     4   ar
     7     4     1    1
     8     1    17    1
     9    17    19    1
    10    19    20    2
    11    19    21    2
    12    19    22    1
    13    22    23   ar
    14    23    24   ar
    15    24    25   ar
    16    25    26   ar
    17    26    27   ar
    18    27    28   ar
    19    28    29   ar
    20    29    30   ar
    21    30    31   ar
    22     4     5   ar
    23     5     6   ar
    24     6     7    1
    25     7     8   ar
    26     8     9   ar
    27     9    10   ar
    28    10    11   ar
    29    11    12   ar
    30     6     2   ar
    31    12     7   ar
    32    31    22   ar
    33    31    26   ar
    34    17    18    1
@<TRIPOS>MOLECULE
*****
 31 34 0 0 0
SMALL
GASTEIGER

@<TRIPOS>ATOM
      1 C         144.4826  143.3032  164.3812 C.3     1  UNL1        0.1387
      2 C         140.7430  143.2931  165.4211 C.ar    1  UNL1        0.0617
      3 C         141.8339  143.6554  164.4573 C.ar    1  UNL1        0.0326
      4 C         143.1326  143.1570  165.0186 C.ar    1  UNL1        0.0977
      5 N         142.8444  142.4866  166.3291 N.ar    1  UNL1       -0.1683
      6 N         141.3675  142.5707  166.5779 N.ar    1  UNL1       -0.2340
      7 C         140.6425  142.0279  167.7735 C.ar    1  UNL1        0.0824
      8 C         140.5216  142.8570  169.0176 C.ar    1  UNL1        0.0191
      9 C         139.7965  142.3141  170.2132 C.ar    1  UNL1        0.0015
     10 C         139.1923  140.9420  170.1647 C.ar    1  UNL1        0.0001
     11 C         139.3132  140.1129  168.9205 C.ar    1  UNL1        0.0015
     12 C         140.0383  140.6558  167.7249 C.ar    1  UNL1        0.0191
     13 C         139.2839  143.5994  165.2568 C.3     1  UNL1        0.0459
     14 C         137.7114  143.3346  163.2056 C.3     1  UNL1        0.0004
     15 C         138.4303  142.7344  164.3773 C.3     1  UNL1        0.0059
     16 C         138.2957  141.2694  164.6697 C.3     1  UNL1        0.0004
     17 N         145.2449  142.0849  163.9512 N.3     1  UNL1       -0.1732
     18 H         145.6613  141.6860  164.7925 H       1  UNL1        0.1492
     19 S         144.5358  140.9664  163.2467 S.O2    1  UNL1        0.0620
     20 O         145.1507  139.9797  164.1946 O.2     1  UNL1       -0.1529
     21 O         143.9210  141.9531  162.2989 O.2     1  UNL1       -0.1529
     22 C         143.8268  139.8479  162.5423 C.ar    1  UNL1        0.1394
     23 C         144.2083  139.4848  161.1378 C.ar    1  UNL1        0.0214
     24 C         143.4992  138.3663  160.4334 C.ar    1  UNL1        0.0015
     25 C         142.4087  137.6109  161.1335 C.ar    1  UNL1        0.0016
     26 C         142.0272  137.9740  162.5380 C.ar    1  UNL1        0.0190
     27 C         140.9367  137.2186  163.2381 C.ar    1  UNL1        0.0031
     28 C         140.5552  137.5817  164.6426 C.ar    1  UNL1        0.0207
     29 C         141.2643  138.7002  165.3470 C.ar    1  UNL1        0.0989
     30 N         142.3548  139.4556  164.6469 N.ar    1  UNL1       -0.2425
     31 C         142.7362  139.0925  163.2424 C.ar    1  UNL1        0.0998
@<TRIPOS>BOND
     1    14    15    1
     2    15    16    1
     3    15    13    1
     4    13     2    1
     5     2     3   ar
     6     3     4   ar
     7     4     1    1
     8     1    17    1
     9    17    19    1
    10    19    20    2
    11    19    21    2
    12    19    22    1
    13    22    23   ar
    14    23    24   ar
    15    24    25   ar
    16    25    26   ar
    17    26    27   ar
    18    27    28   ar
    19    28    29   ar
    20    29    30   ar
    21    30    31   ar
    22     4     5   ar
    23     5     6   ar
    24     6     7    1
    25     7     8   ar
    26     8     9   ar
    27     9    10   ar
    28    10    11   ar
    29    11    12   ar
    30     6     2   ar
    31    12     7   ar
    32    31    22   ar
    33    31    26   ar
    34    17    18    1
@<TRIPOS>MOLECULE
*****
 31 34 0 0 0
SMALL
GASTEIGER

@<TRIPOS>ATOM
      1 C         144.0072  144.2859  163.0439 C.3     1  UNL1        0.1387
      2 C         141.3618  142.8881  165.5165 C.ar    1  UNL1        0.0617
      3 C         141.7206  143.6308  164.2635 C.ar    1  UNL1        0.0326
      4 C         143.2161  143.6485  164.1474 C.ar    1  UNL1        0.0977
      5 N         143.7814  142.9168  165.3286 N.ar    1  UNL1       -0.1683
      6 N         142.6354  142.4469  166.1747 N.ar    1  UNL1       -0.2340
      7 C         142.7439  141.6719  167.4543 C.ar    1  UNL1        0.0824
      8 C         143.1302  142.3707  168.7240 C.ar    1  UNL1        0.0191
      9 C         143.2387  141.5956  170.0036 C.ar    1  UNL1        0.0015
     10 C         142.9608  140.1216  170.0135 C.ar    1  UNL1        0.0001
     11 C         142.5744  139.4227  168.7438 C.ar    1  UNL1        0.0015
     12 C         142.4660  140.1978  167.4642 C.ar    1  UNL1        0.0191
     13 C         139.9731  142.6318  166.0223 C.3     1  UNL1        0.0459
     14 C         139.1005  140.1983  166.2804 C.3     1  UNL1        0.0004
     15 C         139.1839  141.4716  165.4920 C.3     1  UNL1        0.0059
     16 C         138.4781  141.5848  164.1733 C.3     1  UNL1        0.0004
     17 N         144.8479  143.4370  162.1368 N.3     1  UNL1       -0.1732
     18 H         145.6533  143.1310  162.6828 H       1  UNL1        0.1492
     19 S         144.2630  142.2099  161.5029 S.O2    1  UNL1        0.0620
     20 O         145.3313  141.3715  162.1399 O.2     1  UNL1       -0.1529
     21 O         143.1946  143.0482  160.8659 O.2     1  UNL1       -0.1529
     22 C         143.6780  140.9827  160.8689 C.ar    1  UNL1        0.1394
     23 C         143.8898  140.7201  159.4074 C.ar    1  UNL1        0.0214
     24 C         143.3048  139.4929  158.7734 C.ar    1  UNL1        0.0015
     25 C         142.5081  138.5284  159.6010 C.ar    1  UNL1        0.0016
     26 C         142.2963  138.7910  161.0626 C.ar    1  UNL1        0.0190
     27 C         141.4995  137.8265  161.8901 C.ar    1  UNL1        0.0031
     28 C         141.2877  138.0892  163.3517 C.ar    1  UNL1        0.0207
     29 C         141.8727  139.3164  163.9856 C.ar    1  UNL1        0.0989
     30 N         142.6694  140.2809  163.1581 N.ar    1  UNL1       -0.2425
     31 C         142.8812  140.0182  161.6966 C.ar    1  UNL1        0.0998
@<TRIPOS>BOND
     1    14    15    1
     2    15    16    1
     3    15    13    1
     4    13     2    1
     5     2     3   ar
     6     3     4   ar
     7     4     1    1
     8     1    17    1
     9    17    19    1
    10    19    20    2
    11    19    21    2
    12    19    22    1
    13    22    23   ar
    14    23    24   ar
    15    24    25   ar
    16    25    26   ar
    17    26    27   ar
    18    27    28   ar
    19    28    29   ar
    20    29    30   ar
    21    30    31   ar
    22     4     5   ar
    23     5     6   ar
    24     6     7    1
    25     7     8   ar
    26     8     9   ar
    27     9    10   ar
    28    10    11   ar
    29    11    12   ar
    30     6     2   ar
    31    12     7   ar
    32    31    22   ar
    33    31    26   ar
    34    17    18    1
@<TRIPOS>MOLECULE
*****
 31 34 0 0 0
SMALL
GASTEIGER

@<TRIPOS>ATOM
      1 C         139.0818  144.7680  164.5802 C.3     1  UNL1        0.1387
      2 C         138.9857  141.0365  165.6442 C.ar    1  UNL1        0.0617
      3 C         138.5385  142.1563  164.7520 C.ar    1  UNL1        0.0326
      4 C         139.2357  143.4085  165.1951 C.ar    1  UNL1        0.0977
      5 N         140.1136  143.0624  166.3610 N.ar    1  UNL1       -0.1683
      6 N         139.9591  141.5964  166.6386 N.ar    1  UNL1       -0.2340
      7 C         140.6557  140.8257  167.7205 C.ar    1  UNL1        0.0824
      8 C         139.9741  140.5982  169.0372 C.ar    1  UNL1        0.0191
      9 C         140.6708  139.8275  170.1191 C.ar    1  UNL1        0.0015
     10 C         142.0491  139.2843  169.8844 C.ar    1  UNL1        0.0001
     11 C         142.7308  139.5118  168.5678 C.ar    1  UNL1        0.0015
     12 C         142.0341  140.2825  167.4858 C.ar    1  UNL1        0.0191
     13 C         138.5380  139.6075  165.5572 C.3     1  UNL1        0.0459
     14 C         140.5961  138.0985  165.0699 C.3     1  UNL1        0.0004
     15 C         139.2619  138.6480  164.6598 C.3     1  UNL1        0.0059
     16 C         138.6517  138.2380  163.3523 C.3     1  UNL1        0.0004
     17 N         140.1197  145.2817  163.6268 N.3     1  UNL1       -0.1732
     18 H         141.0230  144.9571  163.9720 H       1  UNL1        0.1492
     19 S         140.0528  144.9120  162.1746 S.O2    1  UNL1        0.0620
     20 O         138.7118  145.5755  162.0675 O.2     1  UNL1       -0.1529
     21 O         141.3938  144.2485  162.2817 O.2     1  UNL1       -0.1529
     22 C         139.9858  144.5423  160.7224 C.ar    1  UNL1        0.1394
     23 C         140.5395  145.4735  159.6851 C.ar    1  UNL1        0.0214
     24 C         140.4726  145.1038  158.2329 C.ar    1  UNL1        0.0015
     25 C         139.8520  143.8028  157.8181 C.ar    1  UNL1        0.0016
     26 C         139.2982  142.8714  158.8555 C.ar    1  UNL1        0.0190
     27 C         138.6776  141.5704  158.4406 C.ar    1  UNL1        0.0031
     28 C         138.1239  140.6392  159.4779 C.ar    1  UNL1        0.0207
     29 C         138.1908  141.0089  160.9301 C.ar    1  UNL1        0.0989
     30 N         138.8115  142.3099  161.3450 N.ar    1  UNL1       -0.2425
     31 C         139.3652  143.2412  160.3076 C.ar    1  UNL1        0.0998
@<TRIPOS>BOND
     1    14    15    1
     2    15    16    1
     3    15    13    1
     4    13     2    1
     5     2     3   ar
     6     3     4   ar
     7     4     1    1
     8     1    17    1
     9    17    19    1
    10    19    20    2
    11    19    21    2
    12    19    22    1
    13    22    23   ar
    14    23    24   ar
    15    24    25   ar
    16    25    26   ar
    17    26    27   ar
    18    27    28   ar
    19    28    29   ar
    20    29    30   ar
    21    30    31   ar
    22     4     5   ar
    23     5     6   ar
    24     6     7    1
    25     7     8   ar
    26     8     9   ar
    27     9    10   ar
    28    10    11   ar
    29    11    12   ar
    30     6     2   ar
    31    12     7   ar
    32    31    22   ar
    33    31    26   ar
    34    17    18    1
@<TRIPOS>MOLECULE
*****
 31 34 0 0 0
SMALL
GASTEIGER

@<TRIPOS>ATOM
      1 C         144.7650  140.8396  163.1029 C.3     1  UNL1        0.1387
      2 C         141.9288  140.1879  165.6714 C.ar    1  UNL1        0.0617
      3 C         142.6501  139.8463  164.4013 C.ar    1  UNL1        0.0326
      4 C         143.7832  140.8154  164.2368 C.ar    1  UNL1        0.0977
      5 N         143.7621  141.7558  165.4051 N.ar    1  UNL1       -0.1683
      6 N         142.6161  141.3681  166.2917 N.ar    1  UNL1       -0.2340
      7 C         142.2258  142.0421  167.5736 C.ar    1  UNL1        0.0824
      8 C         140.8410  142.5943  167.7393 C.ar    1  UNL1        0.0191
      9 C         140.4508  143.2683  169.0212 C.ar    1  UNL1        0.0015
     10 C         141.4453  143.3901  170.1375 C.ar    1  UNL1        0.0001
     11 C         142.8300  142.8378  169.9719 C.ar    1  UNL1        0.0015
     12 C         143.2203  142.1638  168.6899 C.ar    1  UNL1        0.0191
     13 C         140.7306  139.4746  166.2240 C.3     1  UNL1        0.0459
     14 C         138.6467  140.6168  165.1737 C.3     1  UNL1        0.0004
     15 C         139.4707  139.3867  165.4147 C.3     1  UNL1        0.0059
     16 C         139.0348  138.0688  164.8463 C.3     1  UNL1        0.0004
     17 N         144.9621  142.0966  162.3083 N.3     1  UNL1       -0.1732
     18 H         145.5473  141.8514  161.5097 H       1  UNL1        0.1492
     19 S         143.7745  142.8342  161.7646 S.O2    1  UNL1        0.0620
     20 O         144.3648  144.1307  162.2342 O.2     1  UNL1       -0.1529
     21 O         143.1843  141.5376  161.2950 O.2     1  UNL1       -0.1529
     22 C         142.5869  143.5718  161.2209 C.ar    1  UNL1        0.1394
     23 C         142.5128  143.9000  159.7592 C.ar    1  UNL1        0.0214
     24 C         141.3252  144.6376  159.2155 C.ar    1  UNL1        0.0015
     25 C         140.2118  145.0469  160.1335 C.ar    1  UNL1        0.0016
     26 C         140.2859  144.7186  161.5953 C.ar    1  UNL1        0.0190
     27 C         139.1725  145.1279  162.5133 C.ar    1  UNL1        0.0031
     28 C         139.2467  144.7996  163.9750 C.ar    1  UNL1        0.0207
     29 C         140.4343  144.0620  164.5187 C.ar    1  UNL1        0.0989
     30 N         141.5477  143.6527  163.6007 N.ar    1  UNL1       -0.2425
     31 C         141.4735  143.9810  162.1390 C.ar    1  UNL1        0.0998
@<TRIPOS>BOND
     1    14    15    1
     2    15    16    1
     3    15    13    1
     4    13     2    1
     5     2     3   ar
     6     3     4   ar
     7     4     1    1
     8     1    17    1
     9    17    19    1
    10    19    20    2
    11    19    21    2
    12    19    22    1
    13    22    23   ar
    14    23    24   ar
    15    24    25   ar
    16    25    26   ar
    17    26    27   ar
    18    27    28   ar
    19    28    29   ar
    20    29    30   ar
    21    30    31   ar
    22     4     5   ar
    23     5     6   ar
    24     6     7    1
    25     7     8   ar
    26     8     9   ar
    27     9    10   ar
    28    10    11   ar
    29    11    12   ar
    30     6     2   ar
    31    12     7   ar
    32    31    22   ar
    33    31    26   ar
    34    17    18    1
@<TRIPOS>MOLECULE
*****
 31 34 0 0 0
SMALL
GASTEIGER

@<TRIPOS>ATOM
      1 C         145.2057  141.4161  163.1043 C.3     1  UNL1        0.1387
      2 C         142.7252  141.4739  166.0891 C.ar    1  UNL1        0.0617
      3 C         143.9719  141.9611  165.4121 C.ar    1  UNL1        0.0326
      4 C         144.1027  141.2370  164.1049 C.ar    1  UNL1        0.0977
      5 N         142.9368  140.3023  163.9741 N.ar    1  UNL1       -0.1683
      6 N         142.0854  140.4488  165.2004 N.ar    1  UNL1       -0.2340
      7 C         140.8171  139.7014  165.4875 C.ar    1  UNL1        0.0824
      8 C         140.5365  138.4038  164.7892 C.ar    1  UNL1        0.0191
      9 C         139.2681  137.6565  165.0764 C.ar    1  UNL1        0.0015
     10 C         138.2802  138.2066  166.0620 C.ar    1  UNL1        0.0001
     11 C         138.5607  139.5041  166.7604 C.ar    1  UNL1        0.0015
     12 C         139.8291  140.2515  166.4732 C.ar    1  UNL1        0.0191
     13 C         142.2089  141.9316  167.4210 C.3     1  UNL1        0.0459
     14 C         143.6378  142.2598  169.5658 C.3     1  UNL1        0.0004
     15 C         142.8009  141.3808  168.6844 C.3     1  UNL1        0.0059
     16 C         142.5560  139.9511  169.0664 C.3     1  UNL1        0.0004
     17 N         145.2098  142.6118  162.1985 N.3     1  UNL1       -0.1732
     18 H         145.7813  142.3668  161.3899 H       1  UNL1        0.1492
     19 S         143.9164  143.1540  161.6664 S.O2    1  UNL1        0.0620
     20 O         144.2038  144.4758  162.3148 O.2     1  UNL1       -0.1529
     21 O         143.6291  141.8323  161.0180 O.2     1  UNL1       -0.1529
     22 C         142.6231  143.6963  161.1343 C.ar    1  UNL1        0.1394
     23 C         142.4417  143.8897  159.6580 C.ar    1  UNL1        0.0214
     24 C         141.1484  144.4319  159.1258 C.ar    1  UNL1        0.0015
     25 C         140.0363  144.7807  160.0701 C.ar    1  UNL1        0.0016
     26 C         140.2176  144.5872  161.5465 C.ar    1  UNL1        0.0190
     27 C         139.1055  144.9360  162.4907 C.ar    1  UNL1        0.0031
     28 C         139.2868  144.7425  163.9671 C.ar    1  UNL1        0.0207
     29 C         140.5802  144.2003  164.4992 C.ar    1  UNL1        0.0989
     30 N         141.6923  143.8516  163.5550 N.ar    1  UNL1       -0.2425
     31 C         141.5110  144.0450  162.0786 C.ar    1  UNL1        0.0998
@<TRIPOS>BOND
     1    14    15    1
     2    15    16    1
     3    15    13    1
     4    13     2    1
     5     2     3   ar
     6     3     4   ar
     7     4     1    1
     8     1    17    1
     9    17    19    1
    10    19    20    2
    11    19    21    2
    12    19    22    1
    13    22    23   ar
    14    23    24   ar
    15    24    25   ar
    16    25    26   ar
    17    26    27   ar
    18    27    28   ar
    19    28    29   ar
    20    29    30   ar
    21    30    31   ar
    22     4     5   ar
    23     5     6   ar
    24     6     7    1
    25     7     8   ar
    26     8     9   ar
    27     9    10   ar
    28    10    11   ar
    29    11    12   ar
    30     6     2   ar
    31    12     7   ar
    32    31    22   ar
    33    31    26   ar
    34    17    18    1
