@<TRIPOS>MOLECULE
*****
 21 22 0 0 0
SMALL
GASTEIGER

@<TRIPOS>ATOM
      1 C         139.9768  140.0382  166.3590 C.2     1  UNL1        0.2254
      2 O         140.0542  140.9271  167.5647 O.2     1  UNL1       -0.2749
      3 N         141.2332  139.6158  165.6567 N.am    1  UNL1       -0.2756
      4 C         141.1558  138.7268  164.4509 C.3     1  UNL1        0.0927
      5 C         141.0295  139.1816  163.0271 C.3     1  UNL1        0.0383
      6 C         140.9867  137.9629  162.1534 C.3     1  UNL1        0.0704
      7 N         141.0866  136.7551  163.0374 N.3     1  UNL1       -0.2960
      8 C         141.1911  137.2273  164.4573 C.3     1  UNL1        0.0887
      9 H         141.9149  136.2133  162.7910 H       1  UNL1        0.1233
     10 C         137.9649  140.3062  164.7370 C.3     1  UNL1        0.0096
     11 C         138.6431  139.5717  165.8554 C.3     1  UNL1        0.0767
     12 C         137.9875  138.3708  166.4701 C.3     1  UNL1        0.0096
     13 C         142.5669  140.0822  166.1603 C.3     1  UNL1        0.1210
     14 C         143.4759  140.8661  165.2606 C.ar    1  UNL1        0.0091
     15 C         144.6394  140.1907  164.5972 C.ar    1  UNL1       -0.0017
     16 C         145.5484  140.9745  163.6976 C.ar    1  UNL1        0.0007
     17 C         145.2939  142.4337  163.4614 C.ar    1  UNL1        0.0122
     18 C         144.1305  143.1092  164.1249 C.ar    1  UNL1        0.0679
     19 CL        143.8760  144.5685  163.8887 Cl      1  UNL1       -0.0814
     20 C         143.2215  142.3254  165.0245 C.ar    1  UNL1        0.0658
     21 CL        142.0580  143.0008  165.6879 Cl      1  UNL1       -0.0816
@<TRIPOS>BOND
     1    10    11    1
     2    11    12    1
     3    11     1    1
     4     1     2    2
     5     1     3   am
     6     3    13    1
     7    13    14    1
     8    14    15   ar
     9    15    16   ar
    10    16    17   ar
    11    17    18   ar
    12    18    19    1
    13    18    20   ar
    14    20    21    1
    15     4     3    1
    16     4     5    1
    17     5     6    1
    18     6     7    1
    19     7     8    1
    20    20    14   ar
    21     8     4    1
    22     7     9    1
@<TRIPOS>MOLECULE
*****
 21 22 0 0 0
SMALL
GASTEIGER

@<TRIPOS>ATOM
      1 C         138.9241  140.5208  165.8030 C.2     1  UNL1        0.2254
      2 O         138.2114  141.2472  164.7011 O.2     1  UNL1       -0.2749
      3 N         139.8158  141.2749  166.7444 N.am    1  UNL1       -0.2756
      4 C         140.5286  140.5483  167.8463 C.3     1  UNL1        0.0927
      5 C         141.9116  139.9723  167.7720 C.3     1  UNL1        0.0383
      6 C         142.2213  139.3382  169.0958 C.3     1  UNL1        0.0704
      7 N         141.0296  139.5224  169.9881 N.3     1  UNL1       -0.2960
      8 C         139.9835  140.2703  169.2158 C.3     1  UNL1        0.0887
      9 H         141.2961  140.0556  170.8158 H       1  UNL1        0.1233
     10 C         139.5994  138.0917  165.1755 C.3     1  UNL1        0.0096
     11 C         138.7453  139.0401  165.9635 C.3     1  UNL1        0.0767
     12 C         137.7123  138.5079  166.9120 C.3     1  UNL1        0.0096
     13 C         139.9947  142.7555  166.5839 C.3     1  UNL1        0.1210
     14 C         140.8253  143.2928  165.4563 C.ar    1  UNL1        0.0091
     15 C         142.2336  142.8123  165.2671 C.ar    1  UNL1       -0.0017
     16 C         143.0642  143.3495  164.1396 C.ar    1  UNL1        0.0007
     17 C         142.4866  144.3672  163.2012 C.ar    1  UNL1        0.0122
     18 C         141.0782  144.8477  163.3904 C.ar    1  UNL1        0.0679
     19 CL        140.5006  145.8654  162.4520 Cl      1  UNL1       -0.0814
     20 C         140.2476  144.3104  164.5180 C.ar    1  UNL1        0.0658
     21 CL        138.8393  144.7909  164.7072 Cl      1  UNL1       -0.0816
@<TRIPOS>BOND
     1    10    11    1
     2    11    12    1
     3    11     1    1
     4     1     2    2
     5     1     3   am
     6     3    13    1
     7    13    14    1
     8    14    15   ar
     9    15    16   ar
    10    16    17   ar
    11    17    18   ar
    12    18    19    1
    13    18    20   ar
    14    20    21    1
    15     4     3    1
    16     4     5    1
    17     5     6    1
    18     6     7    1
    19     7     8    1
    20    20    14   ar
    21     8     4    1
    22     7     9    1
@<TRIPOS>MOLECULE
*****
 21 22 0 0 0
SMALL
GASTEIGER

@<TRIPOS>ATOM
      1 C         140.2660  139.9760  168.8663 C.2     1  UNL1        0.2254
      2 O         139.0653  139.8155  169.7509 O.2     1  UNL1       -0.2749
      3 N         140.1196  139.8732  167.3770 N.am    1  UNL1       -0.2756
      4 C         141.3204  140.0337  166.4925 C.3     1  UNL1        0.0927
      5 C         142.2939  138.9540  166.1232 C.3     1  UNL1        0.0383
      6 C         143.3337  139.5551  165.2244 C.3     1  UNL1        0.0704
      7 N         143.0027  141.0063  165.0384 N.3     1  UNL1       -0.2960
      8 C         141.7584  141.3021  165.8221 C.3     1  UNL1        0.0887
      9 H         142.8436  141.2011  164.0498 H       1  UNL1        0.1233
     10 C         142.4821  139.0924  169.8952 C.3     1  UNL1        0.0096
     11 C         141.6133  140.2393  169.4711 C.3     1  UNL1        0.0767
     12 C         142.0917  141.6494  169.6517 C.3     1  UNL1        0.0096
     13 C         138.7724  139.6100  166.7723 C.3     1  UNL1        0.1210
     14 C         138.6584  139.2611  165.3178 C.ar    1  UNL1        0.0091
     15 C         138.9385  137.8609  164.8583 C.ar    1  UNL1       -0.0017
     16 C         138.8245  137.5120  163.4039 C.ar    1  UNL1        0.0007
     17 C         138.4304  138.5632  162.4091 C.ar    1  UNL1        0.0122
     18 C         138.1502  139.9633  162.8687 C.ar    1  UNL1        0.0679
     19 CL        137.7560  141.0145  161.8738 Cl      1  UNL1       -0.0814
     20 C         138.2642  140.3122  164.3231 C.ar    1  UNL1        0.0658
     21 CL        137.9840  141.7123  164.7826 Cl      1  UNL1       -0.0816
@<TRIPOS>BOND
     1    10    11    1
     2    11    12    1
     3    11     1    1
     4     1     2    2
     5     1     3   am
     6     3    13    1
     7    13    14    1
     8    14    15   ar
     9    15    16   ar
    10    16    17   ar
    11    17    18   ar
    12    18    19    1
    13    18    20   ar
    14    20    21    1
    15     4     3    1
    16     4     5    1
    17     5     6    1
    18     6     7    1
    19     7     8    1
    20    20    14   ar
    21     8     4    1
    22     7     9    1
@<TRIPOS>MOLECULE
*****
 21 22 0 0 0
SMALL
GASTEIGER

@<TRIPOS>ATOM
      1 C         142.6583  140.0700  168.5174 C.2     1  UNL1        0.2254
      2 O         142.9572  138.8700  169.3663 O.2     1  UNL1       -0.2749
      3 N         142.7770  139.9812  167.0248 N.am    1  UNL1       -0.2756
      4 C         142.4780  141.1813  166.1759 C.3     1  UNL1        0.0927
      5 C         143.4695  142.2147  165.7298 C.3     1  UNL1        0.0383
      6 C         142.7393  143.2308  164.9023 C.3     1  UNL1        0.0704
      7 N         141.2966  142.8253  164.8371 N.3     1  UNL1       -0.2960
      8 C         141.1351  141.5586  165.6243 C.3     1  UNL1        0.0887
      9 H         141.0251  142.6668  163.8668 H       1  UNL1        0.1233
     10 C         140.7866  141.6429  169.3968 C.3     1  UNL1        0.0096
     11 C         142.2405  141.3589  169.1612 C.3     1  UNL1        0.0767
     12 C         143.2767  142.3637  169.5695 C.3     1  UNL1        0.0096
     13 C         143.1947  138.6925  166.3810 C.3     1  UNL1        0.1210
     14 C         142.7498  138.3730  164.9845 C.ar    1  UNL1        0.0091
     15 C         141.4367  137.6854  164.7545 C.ar    1  UNL1       -0.0017
     16 C         140.9918  137.3659  163.3581 C.ar    1  UNL1        0.0007
     17 C         141.8601  137.7339  162.1917 C.ar    1  UNL1        0.0122
     18 C         143.1732  138.4215  162.4217 C.ar    1  UNL1        0.0679
     19 CL        144.0415  138.7896  161.2552 Cl      1  UNL1       -0.0814
     20 C         143.6181  138.7410  163.8181 C.ar    1  UNL1        0.0658
     21 CL        144.9312  139.4286  164.0480 Cl      1  UNL1       -0.0816
@<TRIPOS>BOND
     1    10    11    1
     2    11    12    1
     3    11     1    1
     4     1     2    2
     5     1     3   am
     6     3    13    1
     7    13    14    1
     8    14    15   ar
     9    15    16   ar
    10    16    17   ar
    11    17    18   ar
    12    18    19    1
    13    18    20   ar
    14    20    21    1
    15     4     3    1
    16     4     5    1
    17     5     6    1
    18     6     7    1
    19     7     8    1
    20    20    14   ar
    21     8     4    1
    22     7     9    1
@<TRIPOS>MOLECULE
*****
 21 22 0 0 0
SMALL
GASTEIGER

@<TRIPOS>ATOM
      1 C         140.3490  140.0063  168.7751 C.2     1  UNL1        0.2254
      2 O         139.1633  139.9296  169.6907 O.2     1  UNL1       -0.2749
      3 N         140.1651  139.8476  167.2949 N.am    1  UNL1       -0.2756
      4 C         141.3508  139.9244  166.3794 C.3     1  UNL1        0.0927
      5 C         142.1987  138.7691  165.9361 C.3     1  UNL1        0.0383
      6 C         143.2687  139.3006  165.0291 C.3     1  UNL1        0.0704
      7 N         143.0822  140.7844  164.9119 N.3     1  UNL1       -0.2960
      8 C         141.8968  141.1698  165.7464 C.3     1  UNL1        0.0887
      9 H         142.9162  141.0365  163.9376 H       1  UNL1        0.1233
     10 C         142.2600  141.6375  169.4367 C.3     1  UNL1        0.0096
     11 C         141.7186  140.2419  169.3397 C.3     1  UNL1        0.0767
     12 C         142.5468  139.0820  169.8074 C.3     1  UNL1        0.0096
     13 C         138.7956  139.6120  166.7303 C.3     1  UNL1        0.1210
     14 C         138.5158  139.9179  165.2887 C.ar    1  UNL1        0.0091
     15 C         138.1535  141.3134  164.8747 C.ar    1  UNL1       -0.0017
     16 C         137.8738  141.6194  163.4332 C.ar    1  UNL1        0.0007
     17 C         137.9564  140.5298  162.4056 C.ar    1  UNL1        0.0122
     18 C         138.3187  139.1343  162.8195 C.ar    1  UNL1        0.0679
     19 CL        138.4012  138.0447  161.7918 Cl      1  UNL1       -0.0814
     20 C         138.5984  138.8284  164.2611 C.ar    1  UNL1        0.0658
     21 CL        138.9607  137.4329  164.6750 Cl      1  UNL1       -0.0816
@<TRIPOS>BOND
     1    10    11    1
     2    11    12    1
     3    11     1    1
     4     1     2    2
     5     1     3   am
     6     3    13    1
     7    13    14    1
     8    14    15   ar
     9    15    16   ar
    10    16    17   ar
    11    17    18   ar
    12    18    19    1
    13    18    20   ar
    14    20    21    1
    15     4     3    1
    16     4     5    1
    17     5     6    1
    18     6     7    1
    19     7     8    1
    20    20    14   ar
    21     8     4    1
    22     7     9    1
@<TRIPOS>MOLECULE
*****
 21 22 0 0 0
SMALL
GASTEIGER

@<TRIPOS>ATOM
      1 C         141.8814  140.1978  165.8748 C.2     1  UNL1        0.2254
      2 O         140.8448  140.2892  166.9550 O.2     1  UNL1       -0.2749
      3 N         142.3493  141.4406  165.1772 N.am    1  UNL1       -0.2756
      4 C         143.3860  141.3492  164.0970 C.3     1  UNL1        0.0927
      5 C         143.1218  141.1149  162.6391 C.3     1  UNL1        0.0383
      6 C         144.4414  141.0969  161.9260 C.3     1  UNL1        0.0704
      7 N         145.5211  141.3201  162.9432 N.3     1  UNL1       -0.2960
      8 C         144.8688  141.4760  164.2849 C.3     1  UNL1        0.0887
      9 H         146.0447  142.1645  162.7127 H       1  UNL1        0.1233
     10 C         141.7915  138.0471  164.4201 C.3     1  UNL1        0.0096
     11 C         142.4503  138.8636  165.4921 C.3     1  UNL1        0.0767
     12 C         143.6778  138.3461  166.1813 C.3     1  UNL1        0.0096
     13 C         141.7805  142.7748  165.5599 C.3     1  UNL1        0.1210
     14 C         140.6149  143.3384  164.8023 C.ar    1  UNL1        0.0091
     15 C         139.2408  142.7748  165.0122 C.ar    1  UNL1       -0.0017
     16 C         138.0753  143.3383  164.2547 C.ar    1  UNL1        0.0007
     17 C         138.2839  144.4656  163.2873 C.ar    1  UNL1        0.0122
     18 C         139.6580  145.0292  163.0775 C.ar    1  UNL1        0.0679
     19 CL        139.8666  146.1565  162.1101 Cl      1  UNL1       -0.0814
     20 C         140.8236  144.4656  163.8350 C.ar    1  UNL1        0.0658
     21 CL        142.1977  145.0293  163.6252 Cl      1  UNL1       -0.0816
@<TRIPOS>BOND
     1    10    11    1
     2    11    12    1
     3    11     1    1
     4     1     2    2
     5     1     3   am
     6     3    13    1
     7    13    14    1
     8    14    15   ar
     9    15    16   ar
    10    16    17   ar
    11    17    18   ar
    12    18    19    1
    13    18    20   ar
    14    20    21    1
    15     4     3    1
    16     4     5    1
    17     5     6    1
    18     6     7    1
    19     7     8    1
    20    20    14   ar
    21     8     4    1
    22     7     9    1
@<TRIPOS>MOLECULE
*****
 21 22 0 0 0
SMALL
GASTEIGER

@<TRIPOS>ATOM
      1 C         141.7153  140.3137  168.2980 C.2     1  UNL1        0.2254
      2 O         142.9689  140.0005  169.0598 O.2     1  UNL1       -0.2749
      3 N         141.4807  139.6937  166.9524 N.am    1  UNL1       -0.2756
      4 C         140.2271  140.0069  166.1906 C.3     1  UNL1        0.0927
      5 C         140.0372  141.1488  165.2366 C.3     1  UNL1        0.0383
      6 C         138.6359  141.0808  164.7054 C.3     1  UNL1        0.0704
      7 N         137.9599  139.8970  165.3312 N.3     1  UNL1       -0.2960
      8 C         138.9433  139.2333  166.2491 C.3     1  UNL1        0.0887
      9 H         137.6670  139.2423  164.6060 H       1  UNL1        0.1233
     10 C         139.5672  140.7036  169.7064 C.3     1  UNL1        0.0096
     11 C         140.6963  141.2469  168.8817 C.3     1  UNL1        0.0767
     12 C         140.8063  142.7233  168.6409 C.3     1  UNL1        0.0096
     13 C         142.4997  138.7606  166.3686 C.3     1  UNL1        0.1210
     14 C         143.0058  138.9802  164.9737 C.ar    1  UNL1        0.0091
     15 C         144.1244  139.9483  164.7255 C.ar    1  UNL1       -0.0017
     16 C         144.6305  140.1680  163.3307 C.ar    1  UNL1        0.0007
     17 C         144.0180  139.4197  162.1841 C.ar    1  UNL1        0.0122
     18 C         142.8995  138.4516  162.4323 C.ar    1  UNL1        0.0679
     19 CL        142.2870  137.7032  161.2856 Cl      1  UNL1       -0.0814
     20 C         142.3934  138.2319  163.8271 C.ar    1  UNL1        0.0658
     21 CL        141.2748  137.2638  164.0753 Cl      1  UNL1       -0.0816
@<TRIPOS>BOND
     1    10    11    1
     2    11    12    1
     3    11     1    1
     4     1     2    2
     5     1     3   am
     6     3    13    1
     7    13    14    1
     8    14    15   ar
     9    15    16   ar
    10    16    17   ar
    11    17    18   ar
    12    18    19    1
    13    18    20   ar
    14    20    21    1
    15     4     3    1
    16     4     5    1
    17     5     6    1
    18     6     7    1
    19     7     8    1
    20    20    14   ar
    21     8     4    1
    22     7     9    1
@<TRIPOS>MOLECULE
*****
 21 22 0 0 0
SMALL
GASTEIGER

@<TRIPOS>ATOM
      1 C         142.7663  140.3729  165.4585 C.2     1  UNL1        0.2254
      2 O         143.8796  141.2977  165.0643 O.2     1  UNL1       -0.2749
      3 N         141.4686  140.3980  164.7067 N.am    1  UNL1       -0.2756
      4 C         140.3554  139.4732  165.1010 C.3     1  UNL1        0.0927
      5 C         140.1163  138.0974  164.5531 C.3     1  UNL1        0.0383
      6 C         138.8989  137.5357  165.2260 C.3     1  UNL1        0.0704
      7 N         138.3857  138.5644  166.1896 N.3     1  UNL1       -0.2960
      8 C         139.2858  139.7618  166.1124 C.3     1  UNL1        0.0887
      9 H         138.3937  138.1858  167.1367 H       1  UNL1        0.1233
     10 C         142.4811  139.8038  167.9775 C.3     1  UNL1        0.0096
     11 C         142.9508  139.4230  166.6047 C.3     1  UNL1        0.0767
     12 C         143.6049  138.0923  166.3782 C.3     1  UNL1        0.0096
     13 C         141.2841  141.3479  163.5605 C.3     1  UNL1        0.1210
     14 C         140.0909  142.2562  163.5238 C.ar    1  UNL1        0.0091
     15 C         139.1386  142.1969  162.3664 C.ar    1  UNL1       -0.0017
     16 C         137.9454  143.1052  162.3297 C.ar    1  UNL1        0.0007
     17 C         137.7047  144.0728  163.4503 C.ar    1  UNL1        0.0122
     18 C         138.6571  144.1321  164.6076 C.ar    1  UNL1        0.0679
     19 CL        138.4162  145.0998  165.7282 Cl      1  UNL1       -0.0814
     20 C         139.8502  143.2238  164.6444 C.ar    1  UNL1        0.0658
     21 CL        140.8026  143.2831  165.8017 Cl      1  UNL1       -0.0816
@<TRIPOS>BOND
     1    10    11    1
     2    11    12    1
     3    11     1    1
     4     1     2    2
     5     1     3   am
     6     3    13    1
     7    13    14    1
     8    14    15   ar
     9    15    16   ar
    10    16    17   ar
    11    17    18   ar
    12    18    19    1
    13    18    20   ar
    14    20    21    1
    15     4     3    1
    16     4     5    1
    17     5     6    1
    18     6     7    1
    19     7     8    1
    20    20    14   ar
    21     8     4    1
    22     7     9    1
@<TRIPOS>MOLECULE
*****
 21 22 0 0 0
SMALL
GASTEIGER

@<TRIPOS>ATOM
      1 C         142.2711  141.0263  166.0829 C.2     1  UNL1        0.2254
      2 O         143.3480  142.0164  165.7514 O.2     1  UNL1       -0.2749
      3 N         140.8743  141.5005  166.3554 N.am    1  UNL1       -0.2756
      4 C         139.7974  140.5103  166.6870 C.3     1  UNL1        0.0927
      5 C         138.9305  139.7869  165.6995 C.3     1  UNL1        0.0383
      6 C         137.9957  138.8992  166.4664 C.3     1  UNL1        0.0704
      7 N         138.2849  139.0740  167.9279 N.3     1  UNL1       -0.2960
      8 C         139.3984  140.0698  168.0642 C.3     1  UNL1        0.0887
      9 H         138.5666  138.1819  168.3342 H       1  UNL1        0.1233
     10 C         143.0108  138.9377  167.4397 C.3     1  UNL1        0.0096
     11 C         142.5909  139.5619  166.1420 C.3     1  UNL1        0.0767
     12 C         142.4908  138.7218  164.9034 C.3     1  UNL1        0.0096
     13 C         140.5545  142.9647  166.2964 C.3     1  UNL1        0.1210
     14 C         139.7972  143.5205  165.1268 C.ar    1  UNL1        0.0091
     15 C         138.3303  143.2423  164.9825 C.ar    1  UNL1       -0.0017
     16 C         137.5731  143.7980  163.8130 C.ar    1  UNL1        0.0007
     17 C         138.2828  144.6318  162.7878 C.ar    1  UNL1        0.0122
     18 C         139.7497  144.9100  162.9321 C.ar    1  UNL1        0.0679
     19 CL        140.4593  145.7439  161.9069 Cl      1  UNL1       -0.0814
     20 C         140.5069  144.3543  164.1016 C.ar    1  UNL1        0.0658
     21 CL        141.9738  144.6324  164.2459 Cl      1  UNL1       -0.0816
@<TRIPOS>BOND
     1    10    11    1
     2    11    12    1
     3    11     1    1
     4     1     2    2
     5     1     3   am
     6     3    13    1
     7    13    14    1
     8    14    15   ar
     9    15    16   ar
    10    16    17   ar
    11    17    18   ar
    12    18    19    1
    13    18    20   ar
    14    20    21    1
    15     4     3    1
    16     4     5    1
    17     5     6    1
    18     6     7    1
    19     7     8    1
    20    20    14   ar
    21     8     4    1
    22     7     9    1
