@<TRIPOS>MOLECULE
*****
 31 33 0 0 0
SMALL
GASTEIGER

@<TRIPOS>ATOM
      1 C         143.5695  140.5735  159.8637 C.3     1  UNL1        0.1684
      2 N         142.5446  141.6424  160.1027 N.am    1  UNL1       -0.2925
      3 C         142.9709  142.9932  160.5961 C.2     1  UNL1        0.2355
      4 O         144.4220  143.2753  160.8505 O.2     1  UNL1       -0.2737
      5 H         141.5922  141.4573  159.9357 H       1  UNL1        0.1504
      6 C         141.9460  144.0622  160.8351 C.3     1  UNL1        0.1085
      7 N         142.3059  144.3605  159.4098 N.3     1  UNL1       -0.3164
      8 C         141.9419  143.3927  162.1774 C.3     1  UNL1        0.0231
      9 C         141.0380  143.8957  163.2636 C.3     1  UNL1        0.0018
     10 C         140.1382  145.0682  163.0076 C.3     1  UNL1        0.0001
     11 C         140.1423  145.7376  161.6653 C.3     1  UNL1        0.0018
     12 C         141.0462  145.2346  160.5790 C.3     1  UNL1        0.0231
     13 H         143.0140  143.6985  159.0923 H       1  UNL1        0.1192
     14 H         142.6737  145.3095  159.3435 H       1  UNL1        0.1192
     15 C         144.1013  140.3401  158.4806 C.1     1  UNL1        0.0927
     16 N         144.6330  140.1067  157.0976 N.1     1  UNL1       -0.1942
     17 C         144.0626  139.7380  161.0077 C.3     1  UNL1        0.0616
     18 C         142.7107  140.6448  165.2029 C.ar    1  UNL1       -0.0000
     19 C         141.8275  139.8528  164.2850 C.ar    1  UNL1       -0.0003
     20 C         142.2781  139.5506  162.8866 C.ar    1  UNL1       -0.0042
     21 C         143.6120  140.0403  162.4061 C.ar    1  UNL1       -0.0194
     22 C         144.4952  140.8323  163.3240 C.ar    1  UNL1       -0.0042
     23 C         144.0445  141.1345  164.7224 C.ar    1  UNL1       -0.0003
     24 C         141.3587  141.5517  169.3981 C.ar    1  UNL1        0.0684
     25 C         142.0863  140.2733  169.1044 C.ar    1  UNL1        0.0103
     26 C         142.5370  139.9710  167.7060 C.ar    1  UNL1        0.0007
     27 C         142.2600  140.9471  166.6013 C.ar    1  UNL1        0.0000
     28 C         141.5324  142.2255  166.8950 C.ar    1  UNL1        0.0007
     29 C         141.0817  142.5277  168.2934 C.ar    1  UNL1        0.0103
     30 N         140.4574  142.1562  172.1949 N.1     1  UNL1       -0.1908
     31 C         140.9080  141.8539  170.7965 C.1     1  UNL1        0.1004
@<TRIPOS>BOND
     1    30    31    3
     2    31    24    1
     3    24    25   ar
     4    25    26   ar
     5    26    27   ar
     6    27    18    1
     7    18    19   ar
     8    19    20   ar
     9    20    21   ar
    10    21    17    1
    11     1    17    1
    12     1    15    1
    13    15    16    3
    14     1     2    1
    15     2     3   am
    16     3     4    2
    17     3     6    1
    18     6     7    1
    19     6     8    1
    20     8     9    1
    21     9    10    1
    22    10    11    1
    23    11    12    1
    24    21    22   ar
    25    22    23   ar
    26    27    28   ar
    27    28    29   ar
    28    29    24   ar
    29    23    18   ar
    30    12     6    1
    31     2     5    1
    32     7    13    1
    33     7    14    1
@<TRIPOS>MOLECULE
*****
 31 33 0 0 0
SMALL
GASTEIGER

@<TRIPOS>ATOM
      1 C         138.5888  140.3202  159.4918 C.3     1  UNL1        0.1684
      2 N         138.6232  141.7645  159.8954 N.am    1  UNL1       -0.2925
      3 C         139.9336  142.4259  160.2044 C.2     1  UNL1        0.2355
      4 O         141.2096  141.6430  160.1099 O.2     1  UNL1       -0.2737
      5 H         137.7858  142.2784  159.9574 H       1  UNL1        0.1504
      6 C         139.9680  143.8702  160.6080 C.3     1  UNL1        0.1085
      7 N         140.0592  144.0139  159.1176 N.3     1  UNL1       -0.3164
      8 C         139.8647  143.2250  161.9581 C.3     1  UNL1        0.0231
      9 C         139.8276  144.0738  163.1942 C.3     1  UNL1        0.0018
     10 C         139.8937  145.5681  163.0802 C.3     1  UNL1        0.0001
     11 C         139.9969  146.2133  161.7300 C.3     1  UNL1        0.0018
     12 C         140.0341  145.3644  160.4939 C.3     1  UNL1        0.0231
     13 H         140.0472  143.0900  158.6856 H       1  UNL1        0.1192
     14 H         140.9271  144.4916  158.8747 H       1  UNL1        0.1192
     15 C         138.5343  139.9483  158.0397 C.1     1  UNL1        0.0927
     16 N         138.4799  139.5765  156.5875 N.1     1  UNL1       -0.1942
     17 C         138.6089  139.2478  160.5404 C.3     1  UNL1        0.0616
     18 C         139.3856  140.3204  164.8411 C.ar    1  UNL1       -0.0000
     19 C         140.4797  139.7212  164.0082 C.ar    1  UNL1       -0.0003
     20 C         140.2208  139.3637  162.5746 C.ar    1  UNL1       -0.0042
     21 C         138.8678  139.6053  161.9740 C.ar    1  UNL1       -0.0194
     22 C         137.7737  140.2045  162.8069 C.ar    1  UNL1       -0.0042
     23 C         138.0325  140.5620  164.2405 C.ar    1  UNL1       -0.0003
     24 C         140.1622  141.3930  169.1419 C.ar    1  UNL1        0.0684
     25 C         139.4696  140.1063  168.8031 C.ar    1  UNL1        0.0103
     26 C         139.2107  139.7488  167.3695 C.ar    1  UNL1        0.0007
     27 C         139.6444  140.6779  166.2747 C.ar    1  UNL1        0.0000
     28 C         140.3371  141.9645  166.6135 C.ar    1  UNL1        0.0007
     29 C         140.5960  142.3220  168.0471 C.ar    1  UNL1        0.0103
     30 N         140.6800  142.1080  172.0090 N.1     1  UNL1       -0.1908
     31 C         140.4211  141.7505  170.5755 C.1     1  UNL1        0.1004
@<TRIPOS>BOND
     1    30    31    3
     2    31    24    1
     3    24    25   ar
     4    25    26   ar
     5    26    27   ar
     6    27    18    1
     7    18    19   ar
     8    19    20   ar
     9    20    21   ar
    10    21    17    1
    11     1    17    1
    12     1    15    1
    13    15    16    3
    14     1     2    1
    15     2     3   am
    16     3     4    2
    17     3     6    1
    18     6     7    1
    19     6     8    1
    20     8     9    1
    21     9    10    1
    22    10    11    1
    23    11    12    1
    24    21    22   ar
    25    22    23   ar
    26    27    28   ar
    27    28    29   ar
    28    29    24   ar
    29    23    18   ar
    30    12     6    1
    31     2     5    1
    32     7    13    1
    33     7    14    1
@<TRIPOS>MOLECULE
*****
 31 33 0 0 0
SMALL
GASTEIGER

@<TRIPOS>ATOM
      1 C         142.4631  138.2437  160.0775 C.3     1  UNL1        0.1684
      2 N         141.6360  139.4890  160.2008 N.am    1  UNL1       -0.2925
      3 C         140.1822  139.3916  160.5569 C.2     1  UNL1        0.2355
      4 O         139.5554  138.0489  160.7899 O.2     1  UNL1       -0.2737
      5 H         142.0474  140.3703  160.0479 H       1  UNL1        0.1504
      6 C         139.3551  140.6370  160.6802 C.3     1  UNL1        0.1085
      7 N         139.0183  140.2387  159.2738 N.3     1  UNL1       -0.3164
      8 C         139.9792  140.6028  162.0438 C.3     1  UNL1        0.0231
      9 C         139.6593  141.6755  163.0422 C.3     1  UNL1        0.0018
     10 C         138.7152  142.7826  162.6770 C.3     1  UNL1        0.0001
     11 C         138.0912  142.8167  161.3134 C.3     1  UNL1        0.0018
     12 C         138.4111  141.7439  160.3150 C.3     1  UNL1        0.0231
     13 H         139.5184  139.3828  159.0338 H       1  UNL1        0.1192
     14 H         139.2935  140.9841  158.6342 H       1  UNL1        0.1192
     15 C         142.6870  137.6223  158.7307 C.1     1  UNL1        0.0927
     16 N         142.9109  137.0010  157.3839 N.1     1  UNL1       -0.1942
     17 C         143.0662  137.6198  161.3009 C.3     1  UNL1        0.0616
     18 C         142.1015  139.2679  165.3756 C.ar    1  UNL1       -0.0000
     19 C         141.3492  138.0819  164.8489 C.ar    1  UNL1       -0.0003
     20 C         141.6708  137.5326  163.4907 C.ar    1  UNL1       -0.0042
     21 C         142.7447  138.1691  162.6592 C.ar    1  UNL1       -0.0194
     22 C         143.4970  139.3551  163.1859 C.ar    1  UNL1       -0.0042
     23 C         143.1754  139.9044  164.5441 C.ar    1  UNL1       -0.0003
     24 C         141.1367  140.9160  169.4503 C.ar    1  UNL1        0.0684
     25 C         142.3403  140.0411  169.2608 C.ar    1  UNL1        0.0103
     26 C         142.6619  139.4917  167.9026 C.ar    1  UNL1        0.0007
     27 C         141.7799  139.8172  166.7338 C.ar    1  UNL1        0.0000
     28 C         140.5764  140.6921  166.9233 C.ar    1  UNL1        0.0007
     29 C         140.2548  141.2415  168.2815 C.ar    1  UNL1        0.0103
     30 N         140.4936  142.0147  172.1667 N.1     1  UNL1       -0.1908
     31 C         140.8152  141.4653  170.8085 C.1     1  UNL1        0.1004
@<TRIPOS>BOND
     1    30    31    3
     2    31    24    1
     3    24    25   ar
     4    25    26   ar
     5    26    27   ar
     6    27    18    1
     7    18    19   ar
     8    19    20   ar
     9    20    21   ar
    10    21    17    1
    11     1    17    1
    12     1    15    1
    13    15    16    3
    14     1     2    1
    15     2     3   am
    16     3     4    2
    17     3     6    1
    18     6     7    1
    19     6     8    1
    20     8     9    1
    21     9    10    1
    22    10    11    1
    23    11    12    1
    24    21    22   ar
    25    22    23   ar
    26    27    28   ar
    27    28    29   ar
    28    29    24   ar
    29    23    18   ar
    30    12     6    1
    31     2     5    1
    32     7    13    1
    33     7    14    1
@<TRIPOS>MOLECULE
*****
 31 33 0 0 0
SMALL
GASTEIGER

@<TRIPOS>ATOM
      1 C         138.1799  140.3467  159.5878 C.3     1  UNL1        0.1684
      2 N         139.6237  140.7289  159.7270 N.am    1  UNL1       -0.2925
      3 C         139.9985  142.1531  160.0115 C.2     1  UNL1        0.2355
      4 O         138.9295  143.1953  160.1569 O.2     1  UNL1       -0.2737
      5 H         140.3253  140.0449  159.6316 H       1  UNL1        0.1504
      6 C         141.4424  142.5353  160.1507 C.3     1  UNL1        0.1085
      7 N         141.1966  142.9578  158.7325 N.3     1  UNL1       -0.3164
      8 C         141.1868  141.9800  161.5204 C.3     1  UNL1        0.0231
      9 C         142.2896  141.9536  162.5368 C.3     1  UNL1        0.0018
     10 C         143.6481  142.4825  162.1834 C.3     1  UNL1        0.0001
     11 C         143.9036  143.0378  160.8136 C.3     1  UNL1        0.0018
     12 C         142.8008  143.0642  159.7972 C.3     1  UNL1        0.0231
     13 H         140.2287  142.7571  158.4808 H       1  UNL1        0.1192
     14 H         141.8227  142.4452  158.1116 H       1  UNL1        0.1192
     15 C         137.4936  140.4789  158.2606 C.1     1  UNL1        0.0927
     16 N         136.8074  140.6111  156.9333 N.1     1  UNL1       -0.1942
     17 C         137.4223  139.8325  160.7759 C.3     1  UNL1        0.0616
     18 C         138.9346  140.6496  164.9346 C.ar    1  UNL1       -0.0000
     19 C         138.0647  141.6560  164.2417 C.ar    1  UNL1       -0.0003
     20 C         137.5606  141.3837  162.8555 C.ar    1  UNL1       -0.0042
     21 C         137.9264  140.1048  162.1621 C.ar    1  UNL1       -0.0194
     22 C         138.7963  139.0984  162.8551 C.ar    1  UNL1       -0.0042
     23 C         139.3005  139.3707  164.2413 C.ar    1  UNL1       -0.0003
     24 C         140.4470  141.4667  169.0934 C.ar    1  UNL1        0.0684
     25 C         139.8092  140.1474  168.7730 C.ar    1  UNL1        0.0103
     26 C         139.3051  139.8750  167.3867 C.ar    1  UNL1        0.0007
     27 C         139.4387  140.9219  166.3209 C.ar    1  UNL1        0.0000
     28 C         140.0765  142.2412  166.6413 C.ar    1  UNL1        0.0007
     29 C         140.5807  142.5136  168.0275 C.ar    1  UNL1        0.0103
     30 N         141.4552  142.0114  171.8659 N.1     1  UNL1       -0.1908
     31 C         140.9511  141.7390  170.4796 C.1     1  UNL1        0.1004
@<TRIPOS>BOND
     1    30    31    3
     2    31    24    1
     3    24    25   ar
     4    25    26   ar
     5    26    27   ar
     6    27    18    1
     7    18    19   ar
     8    19    20   ar
     9    20    21   ar
    10    21    17    1
    11     1    17    1
    12     1    15    1
    13    15    16    3
    14     1     2    1
    15     2     3   am
    16     3     4    2
    17     3     6    1
    18     6     7    1
    19     6     8    1
    20     8     9    1
    21     9    10    1
    22    10    11    1
    23    11    12    1
    24    21    22   ar
    25    22    23   ar
    26    27    28   ar
    27    28    29   ar
    28    29    24   ar
    29    23    18   ar
    30    12     6    1
    31     2     5    1
    32     7    13    1
    33     7    14    1
@<TRIPOS>MOLECULE
*****
 31 33 0 0 0
SMALL
GASTEIGER

@<TRIPOS>ATOM
      1 C         143.6196  141.1719  159.8483 C.3     1  UNL1        0.1684
      2 N         142.2281  140.6883  160.1313 N.am    1  UNL1       -0.2925
      3 C         142.0165  139.3633  160.8017 C.2     1  UNL1        0.2355
      4 O         143.1963  138.5218  161.1891 O.2     1  UNL1       -0.2737
      5 H         141.4538  141.2406  159.8771 H       1  UNL1        0.1504
      6 C         140.6250  138.8797  161.0847 C.3     1  UNL1        0.1085
      7 N         140.8000  138.3658  159.6864 N.3     1  UNL1       -0.3164
      8 C         140.9333  139.5615  162.3847 C.3     1  UNL1        0.0231
      9 C         139.9109  139.5812  163.4821 C.3     1  UNL1        0.0018
     10 C         138.5802  138.9192  163.2795 C.3     1  UNL1        0.0001
     11 C         138.2721  138.2374  161.9794 C.3     1  UNL1        0.0018
     12 C         139.2944  138.2176  160.8820 C.3     1  UNL1        0.0231
     13 H         141.7257  138.6222  159.3433 H       1  UNL1        0.1192
     14 H         140.0879  138.7755  159.0820 H       1  UNL1        0.1192
     15 C         144.2689  140.8599  158.5326 C.1     1  UNL1        0.0927
     16 N         144.9182  140.5479  157.2169 N.1     1  UNL1       -0.1942
     17 C         144.3617  141.9674  160.8809 C.3     1  UNL1        0.0616
     18 C         142.8924  142.0607  165.1333 C.ar    1  UNL1       -0.0000
     19 C         143.9267  141.0565  164.7190 C.ar    1  UNL1       -0.0003
     20 C         144.4165  141.0254  163.3015 C.ar    1  UNL1       -0.0042
     21 C         143.8719  141.9985  162.2984 C.ar    1  UNL1       -0.0194
     22 C         142.8376  143.0027  162.7126 C.ar    1  UNL1       -0.0042
     23 C         142.3478  143.0338  164.1301 C.ar    1  UNL1       -0.0003
     24 C         141.4231  142.1540  169.3856 C.ar    1  UNL1        0.0684
     25 C         142.8710  142.4073  169.0867 C.ar    1  UNL1        0.0103
     26 C         143.3608  142.3762  167.6692 C.ar    1  UNL1        0.0007
     27 C         142.4026  142.0918  166.5507 C.ar    1  UNL1        0.0000
     28 C         140.9548  141.8385  166.8497 C.ar    1  UNL1        0.0007
     29 C         140.4650  141.8696  168.2671 C.ar    1  UNL1        0.0103
     30 N         140.4436  142.2161  172.2205 N.1     1  UNL1       -0.1908
     31 C         140.9334  142.1850  170.8031 C.1     1  UNL1        0.1004
@<TRIPOS>BOND
     1    30    31    3
     2    31    24    1
     3    24    25   ar
     4    25    26   ar
     5    26    27   ar
     6    27    18    1
     7    18    19   ar
     8    19    20   ar
     9    20    21   ar
    10    21    17    1
    11     1    17    1
    12     1    15    1
    13    15    16    3
    14     1     2    1
    15     2     3   am
    16     3     4    2
    17     3     6    1
    18     6     7    1
    19     6     8    1
    20     8     9    1
    21     9    10    1
    22    10    11    1
    23    11    12    1
    24    21    22   ar
    25    22    23   ar
    26    27    28   ar
    27    28    29   ar
    28    29    24   ar
    29    23    18   ar
    30    12     6    1
    31     2     5    1
    32     7    13    1
    33     7    14    1
@<TRIPOS>MOLECULE
*****
 31 33 0 0 0
SMALL
GASTEIGER

@<TRIPOS>ATOM
      1 C         139.4021  140.0576  167.5318 C.3     1  UNL1        0.1684
      2 N         140.3770  141.0507  166.9720 N.am    1  UNL1       -0.2925
      3 C         141.8271  140.6886  166.8452 C.2     1  UNL1        0.2355
      4 O         142.3023  139.3334  167.2783 O.2     1  UNL1       -0.2737
      5 H         140.0651  141.9402  166.6877 H       1  UNL1        0.1504
      6 C         142.8020  141.6817  166.2853 C.3     1  UNL1        0.1085
      7 N         142.8695  142.0420  167.7398 N.3     1  UNL1       -0.3164
      8 C         142.3960  140.9765  165.0252 C.3     1  UNL1        0.0231
      9 C         142.9882  141.3894  163.7105 C.3     1  UNL1        0.0018
     10 C         143.9866  142.5076  163.6558 C.3     1  UNL1        0.0001
     11 C         144.3926  143.2128  164.9159 C.3     1  UNL1        0.0018
     12 C         143.8003  142.7998  166.2307 C.3     1  UNL1        0.0231
     13 H         142.2425  141.4365  168.2695 H       1  UNL1        0.1192
     14 H         142.5872  143.0144  167.8626 H       1  UNL1        0.1192
     15 C         139.1457  140.0093  169.0090 C.1     1  UNL1        0.0927
     16 N         138.8893  139.9610  170.4861 N.1     1  UNL1       -0.1942
     17 C         138.6837  139.1129  166.6146 C.3     1  UNL1        0.0616
     18 C         140.0609  138.6254  162.3584 C.ar    1  UNL1       -0.0000
     19 C         140.5717  137.7000  163.4226 C.ar    1  UNL1       -0.0003
     20 C         140.1126  137.8625  164.8414 C.ar    1  UNL1       -0.0042
     21 C         139.1428  138.9504  165.1959 C.ar    1  UNL1       -0.0194
     22 C         138.6320  139.8759  164.1316 C.ar    1  UNL1       -0.0042
     23 C         139.0911  139.7134  162.7129 C.ar    1  UNL1       -0.0003
     24 C         141.4382  138.1379  158.1021 C.ar    1  UNL1        0.0684
     25 C         142.4303  138.0636  159.2247 C.ar    1  UNL1        0.0103
     26 C         141.9712  138.2261  160.6434 C.ar    1  UNL1        0.0007
     27 C         140.5200  138.4629  160.9396 C.ar    1  UNL1        0.0000
     28 C         139.5279  138.5372  159.8171 C.ar    1  UNL1        0.0007
     29 C         139.9869  138.3747  158.3984 C.ar    1  UNL1        0.0103
     30 N         142.3563  137.8129  155.2647 N.1     1  UNL1       -0.1908
     31 C         141.8972  137.9754  156.6834 C.1     1  UNL1        0.1004
@<TRIPOS>BOND
     1    30    31    3
     2    31    24    1
     3    24    25   ar
     4    25    26   ar
     5    26    27   ar
     6    27    18    1
     7    18    19   ar
     8    19    20   ar
     9    20    21   ar
    10    21    17    1
    11     1    17    1
    12     1    15    1
    13    15    16    3
    14     1     2    1
    15     2     3   am
    16     3     4    2
    17     3     6    1
    18     6     7    1
    19     6     8    1
    20     8     9    1
    21     9    10    1
    22    10    11    1
    23    11    12    1
    24    21    22   ar
    25    22    23   ar
    26    27    28   ar
    27    28    29   ar
    28    29    24   ar
    29    23    18   ar
    30    12     6    1
    31     2     5    1
    32     7    13    1
    33     7    14    1
@<TRIPOS>MOLECULE
*****
 31 33 0 0 0
SMALL
GASTEIGER

@<TRIPOS>ATOM
      1 C         139.5482  140.1544  168.0900 C.3     1  UNL1        0.1684
      2 N         140.4579  141.1394  167.4176 N.am    1  UNL1       -0.2925
      3 C         141.8041  140.7005  166.9228 C.2     1  UNL1        0.2355
      4 O         142.2407  139.2764  167.1003 O.2     1  UNL1       -0.2737
      5 H         140.1713  142.0741  167.3010 H       1  UNL1        0.1504
      6 C         142.7139  141.6855  166.2503 C.3     1  UNL1        0.1085
      7 N         143.0169  141.9900  167.6875 N.3     1  UNL1       -0.3164
      8 C         142.0949  141.0390  165.0467 C.3     1  UNL1        0.0231
      9 C         142.4908  141.4832  163.6698 C.3     1  UNL1        0.0018
     10 C         143.5058  142.5740  163.4965 C.3     1  UNL1        0.0001
     11 C         144.1247  143.2205  164.7002 C.3     1  UNL1        0.0018
     12 C         143.7288  142.7763  166.0772 C.3     1  UNL1        0.0231
     13 H         142.4591  141.3834  168.2885 H       1  UNL1        0.1192
     14 H         142.7898  142.9649  167.8837 H       1  UNL1        0.1192
     15 C         139.5848  139.9964  169.5812 C.1     1  UNL1        0.0927
     16 N         139.6215  139.8384  171.0724 N.1     1  UNL1       -0.1942
     17 C         138.6018  139.3273  167.2713 C.3     1  UNL1        0.0616
     18 C         138.8529  139.4066  162.7790 C.ar    1  UNL1       -0.0000
     19 C         138.1498  140.5114  163.5105 C.ar    1  UNL1       -0.0003
     20 C         138.0661  140.4850  165.0079 C.ar    1  UNL1       -0.0042
     21 C         138.6855  139.3537  165.7738 C.ar    1  UNL1       -0.0194
     22 C         139.3885  138.2490  165.0423 C.ar    1  UNL1       -0.0042
     23 C         139.4722  138.2754  163.5449 C.ar    1  UNL1       -0.0003
     24 C         139.1039  139.4859  158.2867 C.ar    1  UNL1        0.0684
     25 C         139.9532  138.5281  159.0685 C.ar    1  UNL1        0.0103
     26 C         139.8695  138.5017  160.5659 C.ar    1  UNL1        0.0007
     27 C         138.9365  139.4330  161.2815 C.ar    1  UNL1        0.0000
     28 C         138.0872  140.3908  160.4997 C.ar    1  UNL1        0.0007
     29 C         138.1709  140.4172  159.0023 C.ar    1  UNL1        0.0103
     30 N         139.2712  139.5387  155.2918 N.1     1  UNL1       -0.1908
     31 C         139.1876  139.5123  156.7892 C.1     1  UNL1        0.1004
@<TRIPOS>BOND
     1    30    31    3
     2    31    24    1
     3    24    25   ar
     4    25    26   ar
     5    26    27   ar
     6    27    18    1
     7    18    19   ar
     8    19    20   ar
     9    20    21   ar
    10    21    17    1
    11     1    17    1
    12     1    15    1
    13    15    16    3
    14     1     2    1
    15     2     3   am
    16     3     4    2
    17     3     6    1
    18     6     7    1
    19     6     8    1
    20     8     9    1
    21     9    10    1
    22    10    11    1
    23    11    12    1
    24    21    22   ar
    25    22    23   ar
    26    27    28   ar
    27    28    29   ar
    28    29    24   ar
    29    23    18   ar
    30    12     6    1
    31     2     5    1
    32     7    13    1
    33     7    14    1
@<TRIPOS>MOLECULE
*****
 31 33 0 0 0
SMALL
GASTEIGER

@<TRIPOS>ATOM
      1 C         142.5398  138.5341  159.4246 C.3     1  UNL1        0.1684
      2 N         141.7512  139.7831  159.6858 N.am    1  UNL1       -0.2925
      3 C         142.4616  141.0690  159.9887 C.2     1  UNL1        0.2355
      4 O         143.9606  141.1059  160.0303 O.2     1  UNL1       -0.2737
      5 H         140.7674  139.7589  159.6584 H       1  UNL1        0.1504
      6 C         141.6731  142.3180  160.2499 C.3     1  UNL1        0.1085
      7 N         142.3248  142.6883  158.9505 N.3     1  UNL1       -0.3164
      8 C         141.2952  141.5140  161.4584 C.3     1  UNL1        0.0231
      9 C         140.3552  142.0875  162.4770 C.3     1  UNL1        0.0018
     10 C         139.7930  143.4651  162.2869 C.3     1  UNL1        0.0001
     11 C         140.1709  144.2691  161.0783 C.3     1  UNL1        0.0018
     12 C         141.1109  143.6956  160.0597 C.3     1  UNL1        0.0231
     13 H         142.9121  141.9173  158.6329 H       1  UNL1        0.1192
     14 H         142.8990  143.5209  159.0833 H       1  UNL1        0.1192
     15 C         142.9670  138.1953  158.0272 C.1     1  UNL1        0.0927
     16 N         143.3942  137.8566  156.6298 N.1     1  UNL1       -0.1942
     17 C         142.9011  137.6238  160.5607 C.3     1  UNL1        0.0616
     18 C         142.0166  138.8539  164.7980 C.ar    1  UNL1       -0.0000
     19 C         141.0068  138.0630  164.0203 C.ar    1  UNL1       -0.0003
     20 C         141.3017  137.6530  162.6079 C.ar    1  UNL1       -0.0042
     21 C         142.6062  138.0339  161.9732 C.ar    1  UNL1       -0.0194
     22 C         143.6160  138.8248  162.7508 C.ar    1  UNL1       -0.0042
     23 C         143.3212  139.2348  164.1633 C.ar    1  UNL1       -0.0003
     24 C         141.1321  140.0840  169.0353 C.ar    1  UNL1        0.0684
     25 C         142.5150  139.6451  168.6549 C.ar    1  UNL1        0.0103
     26 C         142.8099  139.2351  167.2425 C.ar    1  UNL1        0.0007
     27 C         141.7217  139.2639  166.2104 C.ar    1  UNL1        0.0000
     28 C         140.3388  139.7028  166.5908 C.ar    1  UNL1        0.0007
     29 C         140.0439  140.1129  168.0033 C.ar    1  UNL1        0.0103
     30 N         140.5424  140.9040  171.8601 N.1     1  UNL1       -0.1908
     31 C         140.8372  140.4940  170.4477 C.1     1  UNL1        0.1004
@<TRIPOS>BOND
     1    30    31    3
     2    31    24    1
     3    24    25   ar
     4    25    26   ar
     5    26    27   ar
     6    27    18    1
     7    18    19   ar
     8    19    20   ar
     9    20    21   ar
    10    21    17    1
    11     1    17    1
    12     1    15    1
    13    15    16    3
    14     1     2    1
    15     2     3   am
    16     3     4    2
    17     3     6    1
    18     6     7    1
    19     6     8    1
    20     8     9    1
    21     9    10    1
    22    10    11    1
    23    11    12    1
    24    21    22   ar
    25    22    23   ar
    26    27    28   ar
    27    28    29   ar
    28    29    24   ar
    29    23    18   ar
    30    12     6    1
    31     2     5    1
    32     7    13    1
    33     7    14    1
@<TRIPOS>MOLECULE
*****
 31 33 0 0 0
SMALL
GASTEIGER

@<TRIPOS>ATOM
      1 C         142.1025  140.5615  167.3981 C.3     1  UNL1        0.1684
      2 N         141.1067  139.8872  166.5015 N.am    1  UNL1       -0.2925
      3 C         141.5796  139.0700  165.3360 C.2     1  UNL1        0.2355
      4 O         143.0483  138.9269  165.0671 O.2     1  UNL1       -0.2737
      5 H         140.1427  139.9811  166.6779 H       1  UNL1        0.1504
      6 C         140.5838  138.3957  164.4394 C.3     1  UNL1        0.1085
      7 N         141.4201  137.2148  164.8345 N.3     1  UNL1       -0.3164
      8 C         140.0934  139.8108  164.3557 C.3     1  UNL1        0.0231
      9 C         138.8976  140.1415  163.5126 C.3     1  UNL1        0.0018
     10 C         138.1923  139.0572  162.7532 C.3     1  UNL1        0.0001
     11 C         138.6828  137.6421  162.8370 C.3     1  UNL1        0.0018
     12 C         139.8785  137.3113  163.6800 C.3     1  UNL1        0.0231
     13 H         142.1633  137.5195  165.4630 H       1  UNL1        0.1192
     14 H         141.8308  136.7948  164.0006 H       1  UNL1        0.1192
     15 C         142.5279  139.9018  168.6764 C.1     1  UNL1        0.0927
     16 N         142.9532  139.2422  169.9546 N.1     1  UNL1       -0.1942
     17 C         142.6728  141.8952  167.0164 C.3     1  UNL1        0.0616
     18 C         141.8162  143.6293  162.9533 C.ar    1  UNL1       -0.0000
     19 C         143.1025  142.8984  163.2008 C.ar    1  UNL1       -0.0003
     20 C         143.3880  142.3204  164.5552 C.ar    1  UNL1       -0.0042
     21 C         142.3873  142.4732  165.6620 C.ar    1  UNL1       -0.0194
     22 C         141.1010  143.2041  165.4145 C.ar    1  UNL1       -0.0042
     23 C         140.8155  143.7821  164.0601 C.ar    1  UNL1       -0.0003
     24 C         140.9596  145.3634  158.8901 C.ar    1  UNL1        0.0684
     25 C         141.9902  144.2843  159.0429 C.ar    1  UNL1        0.0103
     26 C         142.2758  143.7063  160.3973 C.ar    1  UNL1        0.0007
     27 C         141.5307  144.2073  161.5989 C.ar    1  UNL1        0.0000
     28 C         140.5001  145.2864  161.4460 C.ar    1  UNL1        0.0007
     29 C         140.2146  145.8644  160.0917 C.ar    1  UNL1        0.0103
     30 N         140.3886  146.5194  156.1813 N.1     1  UNL1       -0.1908
     31 C         140.6741  145.9414  157.5357 C.1     1  UNL1        0.1004
@<TRIPOS>BOND
     1    30    31    3
     2    31    24    1
     3    24    25   ar
     4    25    26   ar
     5    26    27   ar
     6    27    18    1
     7    18    19   ar
     8    19    20   ar
     9    20    21   ar
    10    21    17    1
    11     1    17    1
    12     1    15    1
    13    15    16    3
    14     1     2    1
    15     2     3   am
    16     3     4    2
    17     3     6    1
    18     6     7    1
    19     6     8    1
    20     8     9    1
    21     9    10    1
    22    10    11    1
    23    11    12    1
    24    21    22   ar
    25    22    23   ar
    26    27    28   ar
    27    28    29   ar
    28    29    24   ar
    29    23    18   ar
    30    12     6    1
    31     2     5    1
    32     7    13    1
    33     7    14    1
