@<TRIPOS>MOLECULE
*****
 29 32 0 0 0
SMALL
GASTEIGER

@<TRIPOS>ATOM
      1 O         142.3184  139.9114  164.8488 O.3     1  UNL1       -0.3793
      2 C         142.0557  141.1520  165.6499 C.3     1  UNL1        0.1422
      3 H         142.8268  140.1405  164.0552 H       1  UNL1        0.2108
      4 C         142.5662  142.4778  165.1683 C.ar    1  UNL1        0.0226
      5 C         143.9675  142.9042  165.4915 C.ar    1  UNL1        0.0012
      6 C         144.4779  144.2299  165.0100 C.ar    1  UNL1        0.0204
      7 C         143.5871  145.1292  164.2053 C.ar    1  UNL1        0.0988
      8 N         142.1857  144.7028  163.8821 N.ar    1  UNL1       -0.2441
      9 C         141.6753  143.3771  164.3636 C.ar    1  UNL1        0.0796
     10 C         140.2739  142.9507  164.0405 C.ar    1  UNL1        0.0183
     11 C         139.1339  143.4056  164.9026 C.ar    1  UNL1        0.0015
     12 C         137.7326  142.9791  164.5794 C.ar    1  UNL1        0.0009
     13 C         137.4713  142.0978  163.3941 C.ar    1  UNL1        0.0114
     14 C         138.6113  141.6429  162.5320 C.ar    1  UNL1        0.0577
     15 CL        138.3501  140.7615  161.3466 Cl      1  UNL1       -0.0822
     16 C         140.0127  142.0693  162.8552 C.ar    1  UNL1        0.0129
     17 C         141.2827  141.0670  166.9325 C.3     1  UNL1        0.0787
     18 C         141.7689  141.7943  168.1509 C.ar    1  UNL1        0.0035
     19 C         143.1063  141.4582  168.7412 C.ar    1  UNL1       -0.0007
     20 C         143.5925  142.1856  169.9596 C.ar    1  UNL1        0.0204
     21 C         142.7413  143.2491  170.5877 C.ar    1  UNL1        0.0989
     22 N         141.4039  143.5852  169.9974 N.ar    1  UNL1       -0.2426
     23 C         140.9177  142.8578  168.7790 C.ar    1  UNL1        0.0950
     24 C         140.0233  140.2545  166.9968 C.ar    1  UNL1        0.0035
     25 C         139.3840  139.7609  165.7328 C.ar    1  UNL1       -0.0007
     26 C         138.1247  138.9484  165.7970 C.ar    1  UNL1        0.0204
     27 C         137.5048  138.6296  167.1251 C.ar    1  UNL1        0.0989
     28 N         138.1442  139.1232  168.3891 N.ar    1  UNL1       -0.2426
     29 C         139.4034  139.9357  168.3249 C.ar    1  UNL1        0.0950
@<TRIPOS>BOND
     1     1     2    1
     2     2     4    1
     3     4     5   ar
     4     5     6   ar
     5     6     7   ar
     6     7     8   ar
     7     8     9   ar
     8     9    10    1
     9    10    11   ar
    10    11    12   ar
    11    12    13   ar
    12    13    14   ar
    13    14    15    1
    14    14    16   ar
    15     2    17    1
    16    17    18    1
    17    18    19   ar
    18    19    20   ar
    19    20    21   ar
    20    21    22   ar
    21    22    23   ar
    22    17    24    1
    23    24    25   ar
    24    25    26   ar
    25    26    27   ar
    26    27    28   ar
    27    28    29   ar
    28     9     4   ar
    29    16    10   ar
    30    23    18   ar
    31    29    24   ar
    32     1     3    1
@<TRIPOS>MOLECULE
*****
 29 32 0 0 0
SMALL
GASTEIGER

@<TRIPOS>ATOM
      1 O         139.4118  140.0814  167.4016 O.3     1  UNL1       -0.3793
      2 C         139.7921  140.9321  166.2261 C.3     1  UNL1        0.1422
      3 H         138.9412  139.2922  167.0907 H       1  UNL1        0.2108
      4 C         139.4303  140.4969  164.8370 C.ar    1  UNL1        0.0226
      5 C         138.0538  140.7614  164.3028 C.ar    1  UNL1        0.0012
      6 C         137.6920  140.3262  162.9137 C.ar    1  UNL1        0.0204
      7 C         138.7066  139.6266  162.0588 C.ar    1  UNL1        0.0988
      8 N         140.0831  139.3621  162.5929 N.ar    1  UNL1       -0.2441
      9 C         140.4450  139.7973  163.9820 C.ar    1  UNL1        0.0796
     10 C         141.8214  139.5328  164.5162 C.ar    1  UNL1        0.0183
     11 C         142.0318  138.4709  165.5545 C.ar    1  UNL1        0.0015
     12 C         143.4083  138.2065  166.0886 C.ar    1  UNL1        0.0009
     13 C         144.5744  139.0039  165.5845 C.ar    1  UNL1        0.0114
     14 C         144.3641  140.0657  164.5462 C.ar    1  UNL1        0.0577
     15 CL        145.5303  140.8632  164.0420 Cl      1  UNL1       -0.0822
     16 C         142.9876  140.3302  164.0120 C.ar    1  UNL1        0.0129
     17 C         140.5343  142.2180  166.4399 C.3     1  UNL1        0.0787
     18 C         141.2552  142.4619  167.7324 C.ar    1  UNL1        0.0035
     19 C         142.6784  142.0160  167.8931 C.ar    1  UNL1       -0.0007
     20 C         143.3994  142.2600  169.1856 C.ar    1  UNL1        0.0204
     21 C         142.6972  142.9499  170.3175 C.ar    1  UNL1        0.0989
     22 N         141.2741  143.3957  170.1568 N.ar    1  UNL1       -0.2426
     23 C         140.5531  143.1518  168.8642 C.ar    1  UNL1        0.0950
     24 C         140.5555  143.2600  165.3610 C.ar    1  UNL1        0.0035
     25 C         141.8155  143.5134  164.5877 C.ar    1  UNL1       -0.0007
     26 C         141.8368  144.5553  163.5089 C.ar    1  UNL1        0.0204
     27 C         140.5979  145.3438  163.2034 C.ar    1  UNL1        0.0989
     28 N         139.3378  145.0905  163.9767 N.ar    1  UNL1       -0.2426
     29 C         139.3166  144.0485  165.0555 C.ar    1  UNL1        0.0950
@<TRIPOS>BOND
     1     1     2    1
     2     2     4    1
     3     4     5   ar
     4     5     6   ar
     5     6     7   ar
     6     7     8   ar
     7     8     9   ar
     8     9    10    1
     9    10    11   ar
    10    11    12   ar
    11    12    13   ar
    12    13    14   ar
    13    14    15    1
    14    14    16   ar
    15     2    17    1
    16    17    18    1
    17    18    19   ar
    18    19    20   ar
    19    20    21   ar
    20    21    22   ar
    21    22    23   ar
    22    17    24    1
    23    24    25   ar
    24    25    26   ar
    25    26    27   ar
    26    27    28   ar
    27    28    29   ar
    28     9     4   ar
    29    16    10   ar
    30    23    18   ar
    31    29    24   ar
    32     1     3    1
@<TRIPOS>MOLECULE
*****
 29 32 0 0 0
SMALL
GASTEIGER

@<TRIPOS>ATOM
      1 O         139.3204  140.4435  167.0028 O.3     1  UNL1       -0.3793
      2 C         140.2410  141.4484  166.3762 C.3     1  UNL1        0.1422
      3 H         138.4365  140.5270  166.6121 H       1  UNL1        0.2108
      4 C         139.7276  142.3771  165.3159 C.ar    1  UNL1        0.0226
      5 C         139.4861  143.8221  165.6375 C.ar    1  UNL1        0.0012
      6 C         138.9728  144.7508  164.5774 C.ar    1  UNL1        0.0204
      7 C         138.7010  144.2344  163.1956 C.ar    1  UNL1        0.0988
      8 N         138.9425  142.7893  162.8740 N.ar    1  UNL1       -0.2441
      9 C         139.4558  141.8607  163.9341 C.ar    1  UNL1        0.0796
     10 C         139.6973  140.4156  163.6125 C.ar    1  UNL1        0.0183
     11 C         138.6463  139.3920  163.9246 C.ar    1  UNL1        0.0015
     12 C         138.8878  137.9469  163.6030 C.ar    1  UNL1        0.0009
     13 C         140.1803  137.5254  162.9693 C.ar    1  UNL1        0.0114
     14 C         141.2314  138.5491  162.6572 C.ar    1  UNL1        0.0577
     15 CL        142.5240  138.1277  162.0234 Cl      1  UNL1       -0.0822
     16 C         140.9899  139.9941  162.9788 C.ar    1  UNL1        0.0129
     17 C         141.6749  141.5246  166.8097 C.3     1  UNL1        0.0787
     18 C         142.0271  142.1392  168.1319 C.ar    1  UNL1        0.0035
     19 C         143.4184  142.0027  168.6757 C.ar    1  UNL1       -0.0007
     20 C         143.7705  142.6174  169.9979 C.ar    1  UNL1        0.0204
     21 C         142.7313  143.3685  170.7764 C.ar    1  UNL1        0.0989
     22 N         141.3400  143.5049  170.2326 N.ar    1  UNL1       -0.2426
     23 C         140.9879  142.8903  168.9104 C.ar    1  UNL1        0.0950
     24 C         142.7568  140.9862  165.9210 C.ar    1  UNL1        0.0035
     25 C         143.0953  139.5252  165.9523 C.ar    1  UNL1       -0.0007
     26 C         144.1771  138.9868  165.0637 C.ar    1  UNL1        0.0204
     27 C         144.9205  139.9093  164.1438 C.ar    1  UNL1        0.0989
     28 N         144.5820  141.3703  164.1125 N.ar    1  UNL1       -0.2426
     29 C         143.5002  141.9087  165.0011 C.ar    1  UNL1        0.0950
@<TRIPOS>BOND
     1     1     2    1
     2     2     4    1
     3     4     5   ar
     4     5     6   ar
     5     6     7   ar
     6     7     8   ar
     7     8     9   ar
     8     9    10    1
     9    10    11   ar
    10    11    12   ar
    11    12    13   ar
    12    13    14   ar
    13    14    15    1
    14    14    16   ar
    15     2    17    1
    16    17    18    1
    17    18    19   ar
    18    19    20   ar
    19    20    21   ar
    20    21    22   ar
    21    22    23   ar
    22    17    24    1
    23    24    25   ar
    24    25    26   ar
    25    26    27   ar
    26    27    28   ar
    27    28    29   ar
    28     9     4   ar
    29    16    10   ar
    30    23    18   ar
    31    29    24   ar
    32     1     3    1
@<TRIPOS>MOLECULE
*****
 29 32 0 0 0
SMALL
GASTEIGER

@<TRIPOS>ATOM
      1 O         141.4695  142.3102  167.5098 O.3     1  UNL1       -0.3793
      2 C         141.2588  141.3372  166.3878 C.3     1  UNL1        0.1422
      3 H         142.4103  142.3338  167.7448 H       1  UNL1        0.2108
      4 C         142.4253  140.5863  165.8172 C.ar    1  UNL1        0.0226
      5 C         142.8719  139.3014  166.4493 C.ar    1  UNL1        0.0012
      6 C         144.0383  138.5505  165.8787 C.ar    1  UNL1        0.0204
      7 C         144.7582  139.0846  164.6761 C.ar    1  UNL1        0.0988
      8 N         144.3117  140.3696  164.0440 N.ar    1  UNL1       -0.2441
      9 C         143.1453  141.1204  164.6145 C.ar    1  UNL1        0.0796
     10 C         142.6987  142.4054  163.9825 C.ar    1  UNL1        0.0183
     11 C         143.1693  143.7172  164.5370 C.ar    1  UNL1        0.0015
     12 C         142.7228  145.0022  163.9049 C.ar    1  UNL1        0.0009
     13 C         141.8057  144.9753  162.7183 C.ar    1  UNL1        0.0114
     14 C         141.3351  143.6634  162.1638 C.ar    1  UNL1        0.0577
     15 CL        140.4179  143.6365  160.9771 Cl      1  UNL1       -0.0822
     16 C         141.7816  142.3785  162.7958 C.ar    1  UNL1        0.0129
     17 C         139.8817  141.1150  165.8364 C.3     1  UNL1        0.0787
     18 C         139.1894  139.8022  166.0541 C.ar    1  UNL1        0.0035
     19 C         139.3881  138.6790  165.0799 C.ar    1  UNL1       -0.0007
     20 C         138.6958  137.3662  165.2975 C.ar    1  UNL1        0.0204
     21 C         137.8049  137.1766  166.4894 C.ar    1  UNL1        0.0989
     22 N         137.6063  138.2998  167.4635 N.ar    1  UNL1       -0.2426
     23 C         138.2986  139.6126  167.2459 C.ar    1  UNL1        0.0950
     24 C         139.1967  142.2056  165.0674 C.ar    1  UNL1        0.0035
     25 C         139.4218  143.6411  165.4398 C.ar    1  UNL1       -0.0007
     26 C         138.7369  144.7317  164.6708 C.ar    1  UNL1        0.0204
     27 C         137.8268  144.3868  163.5294 C.ar    1  UNL1        0.0989
     28 N         137.6017  142.9514  163.1570 N.ar    1  UNL1       -0.2426
     29 C         138.2866  141.8607  163.9260 C.ar    1  UNL1        0.0950
@<TRIPOS>BOND
     1     1     2    1
     2     2     4    1
     3     4     5   ar
     4     5     6   ar
     5     6     7   ar
     6     7     8   ar
     7     8     9   ar
     8     9    10    1
     9    10    11   ar
    10    11    12   ar
    11    12    13   ar
    12    13    14   ar
    13    14    15    1
    14    14    16   ar
    15     2    17    1
    16    17    18    1
    17    18    19   ar
    18    19    20   ar
    19    20    21   ar
    20    21    22   ar
    21    22    23   ar
    22    17    24    1
    23    24    25   ar
    24    25    26   ar
    25    26    27   ar
    26    27    28   ar
    27    28    29   ar
    28     9     4   ar
    29    16    10   ar
    30    23    18   ar
    31    29    24   ar
    32     1     3    1
@<TRIPOS>MOLECULE
*****
 29 32 0 0 0
SMALL
GASTEIGER

@<TRIPOS>ATOM
      1 O         139.3372  140.4191  166.9156 O.3     1  UNL1       -0.3793
      2 C         140.2483  141.4492  166.3166 C.3     1  UNL1        0.1422
      3 H         138.4540  140.5013  166.5231 H       1  UNL1        0.2108
      4 C         139.7282  142.3965  165.2763 C.ar    1  UNL1        0.0226
      5 C         139.4929  143.8366  165.6238 C.ar    1  UNL1        0.0012
      6 C         138.9728  144.7838  164.5836 C.ar    1  UNL1        0.0204
      7 C         138.6880  144.2910  163.1958 C.ar    1  UNL1        0.0988
      8 N         138.9233  142.8510  162.8483 N.ar    1  UNL1       -0.2441
      9 C         139.4434  141.9037  163.8885 C.ar    1  UNL1        0.0796
     10 C         139.6787  140.4636  163.5410 C.ar    1  UNL1        0.0183
     11 C         138.6073  139.4455  163.7969 C.ar    1  UNL1        0.0015
     12 C         138.8426  138.0055  163.4494 C.ar    1  UNL1        0.0009
     13 C         140.1494  137.5834  162.8459 C.ar    1  UNL1        0.0114
     14 C         141.2208  138.6015  162.5899 C.ar    1  UNL1        0.0577
     15 CL        142.5276  138.1795  161.9864 Cl      1  UNL1       -0.0822
     16 C         140.9855  140.0416  162.9374 C.ar    1  UNL1        0.0129
     17 C         141.6795  141.5321  166.7579 C.3     1  UNL1        0.0787
     18 C         142.7698  141.0110  165.8692 C.ar    1  UNL1        0.0035
     19 C         143.1171  139.5518  165.8850 C.ar    1  UNL1       -0.0007
     20 C         144.2073  139.0307  164.9963 C.ar    1  UNL1        0.0204
     21 C         144.9503  139.9688  164.0919 C.ar    1  UNL1        0.0989
     22 N         144.6030  141.4279  164.0761 N.ar    1  UNL1       -0.2426
     23 C         143.5128  141.9490  164.9648 C.ar    1  UNL1        0.0950
     24 C         142.0205  142.1361  168.0880 C.ar    1  UNL1        0.0035
     25 C         143.4105  142.0058  168.6367 C.ar    1  UNL1       -0.0007
     26 C         143.7515  142.6097  169.9667 C.ar    1  UNL1        0.0204
     27 C         142.7025  143.3440  170.7480 C.ar    1  UNL1        0.0989
     28 N         141.3125  143.4742  170.1993 N.ar    1  UNL1       -0.2426
     29 C         140.9715  142.8703  168.8693 C.ar    1  UNL1        0.0950
@<TRIPOS>BOND
     1     1     2    1
     2     2     4    1
     3     4     5   ar
     4     5     6   ar
     5     6     7   ar
     6     7     8   ar
     7     8     9   ar
     8     9    10    1
     9    10    11   ar
    10    11    12   ar
    11    12    13   ar
    12    13    14   ar
    13    14    15    1
    14    14    16   ar
    15     2    17    1
    16    17    18    1
    17    18    19   ar
    18    19    20   ar
    19    20    21   ar
    20    21    22   ar
    21    22    23   ar
    22    17    24    1
    23    24    25   ar
    24    25    26   ar
    25    26    27   ar
    26    27    28   ar
    27    28    29   ar
    28     9     4   ar
    29    16    10   ar
    30    23    18   ar
    31    29    24   ar
    32     1     3    1
@<TRIPOS>MOLECULE
*****
 29 32 0 0 0
SMALL
GASTEIGER

@<TRIPOS>ATOM
      1 O         142.8087  139.5101  166.9238 O.3     1  UNL1       -0.3793
      2 C         141.5993  140.0417  166.2133 C.3     1  UNL1        0.1422
      3 H         142.5426  138.7985  167.5270 H       1  UNL1        0.2108
      4 C         140.2464  139.4594  166.4971 C.ar    1  UNL1        0.0226
      5 C         139.5561  138.6252  165.4591 C.ar    1  UNL1        0.0012
      6 C         138.2032  138.0429  165.7429 C.ar    1  UNL1        0.0204
      7 C         137.5405  138.2950  167.0648 C.ar    1  UNL1        0.0988
      8 N         138.2308  139.1293  168.1028 N.ar    1  UNL1       -0.2441
      9 C         139.5837  139.7115  167.8190 C.ar    1  UNL1        0.0796
     10 C         140.2740  140.5458  168.8570 C.ar    1  UNL1        0.0183
     11 C         141.2087  139.9013  169.8372 C.ar    1  UNL1        0.0015
     12 C         141.8989  140.7355  170.8753 C.ar    1  UNL1        0.0009
     13 C         141.6545  142.2143  170.9331 C.ar    1  UNL1        0.0114
     14 C         140.7198  142.8588  169.9529 C.ar    1  UNL1        0.0577
     15 CL        140.4753  144.3377  170.0106 Cl      1  UNL1       -0.0822
     16 C         140.0295  142.0246  168.9148 C.ar    1  UNL1        0.0129
     17 C         141.7429  141.1554  165.2189 C.3     1  UNL1        0.0787
     18 C         143.0492  141.3664  164.5124 C.ar    1  UNL1        0.0035
     19 C         144.0164  142.3966  165.0159 C.ar    1  UNL1       -0.0007
     20 C         145.3227  142.6076  164.3094 C.ar    1  UNL1        0.0204
     21 C         145.6619  141.7883  163.0995 C.ar    1  UNL1        0.0989
     22 N         144.6948  140.7581  162.5962 N.ar    1  UNL1       -0.2426
     23 C         143.3885  140.5472  163.3026 C.ar    1  UNL1        0.0950
     24 C         140.5802  142.0583  164.9309 C.ar    1  UNL1        0.0035
     25 C         140.3229  143.2512  165.8032 C.ar    1  UNL1       -0.0007
     26 C         139.1602  144.1541  165.5153 C.ar    1  UNL1        0.0204
     27 C         138.2548  143.8641  164.3550 C.ar    1  UNL1        0.0989
     28 N         138.5122  142.6713  163.4827 N.ar    1  UNL1       -0.2426
     29 C         139.6749  141.7684  163.7706 C.ar    1  UNL1        0.0950
@<TRIPOS>BOND
     1     1     2    1
     2     2     4    1
     3     4     5   ar
     4     5     6   ar
     5     6     7   ar
     6     7     8   ar
     7     8     9   ar
     8     9    10    1
     9    10    11   ar
    10    11    12   ar
    11    12    13   ar
    12    13    14   ar
    13    14    15    1
    14    14    16   ar
    15     2    17    1
    16    17    18    1
    17    18    19   ar
    18    19    20   ar
    19    20    21   ar
    20    21    22   ar
    21    22    23   ar
    22    17    24    1
    23    24    25   ar
    24    25    26   ar
    25    26    27   ar
    26    27    28   ar
    27    28    29   ar
    28     9     4   ar
    29    16    10   ar
    30    23    18   ar
    31    29    24   ar
    32     1     3    1
@<TRIPOS>MOLECULE
*****
 29 32 0 0 0
SMALL
GASTEIGER

@<TRIPOS>ATOM
      1 O         140.1986  143.2292  167.1358 O.3     1  UNL1       -0.3793
      2 C         141.1404  142.7530  166.0699 C.3     1  UNL1        0.1422
      3 H         139.4549  143.6971  166.7246 H       1  UNL1        0.2108
      4 C         140.8434  143.0336  164.6265 C.ar    1  UNL1        0.0226
      5 C         141.2354  144.3493  164.0222 C.ar    1  UNL1        0.0012
      6 C         140.9384  144.6299  162.5789 C.ar    1  UNL1        0.0204
      7 C         140.2493  143.5948  161.7401 C.ar    1  UNL1        0.0988
      8 N         139.8572  142.2791  162.3444 N.ar    1  UNL1       -0.2441
      9 C         140.1543  141.9985  163.7877 C.ar    1  UNL1        0.0796
     10 C         139.7622  140.6828  164.3920 C.ar    1  UNL1        0.0183
     11 C         138.5304  140.5854  165.2424 C.ar    1  UNL1        0.0015
     12 C         138.1383  139.2698  165.8468 C.ar    1  UNL1        0.0009
     13 C         138.9781  138.0515  165.6008 C.ar    1  UNL1        0.0114
     14 C         140.2099  138.1489  164.7504 C.ar    1  UNL1        0.0577
     15 CL        141.0497  136.9305  164.5044 Cl      1  UNL1       -0.0822
     16 C         140.6019  139.4645  164.1461 C.ar    1  UNL1        0.0129
     17 C         142.3793  141.9962  166.4472 C.3     1  UNL1        0.0787
     18 C         143.5125  141.8783  165.4716 C.ar    1  UNL1        0.0035
     19 C         143.7851  140.5684  164.7934 C.ar    1  UNL1       -0.0007
     20 C         144.9184  140.4505  163.8178 C.ar    1  UNL1        0.0204
     21 C         145.7791  141.6425  163.5204 C.ar    1  UNL1        0.0989
     22 N         145.5065  142.9523  164.1986 N.ar    1  UNL1       -0.2426
     23 C         144.3732  143.0702  165.1742 C.ar    1  UNL1        0.0950
     24 C         142.4849  141.3572  167.8003 C.ar    1  UNL1        0.0035
     25 C         141.8418  140.0259  168.0532 C.ar    1  UNL1       -0.0007
     26 C         141.9474  139.3869  169.4062 C.ar    1  UNL1        0.0204
     27 C         142.6961  140.0793  170.5062 C.ar    1  UNL1        0.0989
     28 N         143.3393  141.4106  170.2532 N.ar    1  UNL1       -0.2426
     29 C         143.2337  142.0495  168.9002 C.ar    1  UNL1        0.0950
@<TRIPOS>BOND
     1     1     2    1
     2     2     4    1
     3     4     5   ar
     4     5     6   ar
     5     6     7   ar
     6     7     8   ar
     7     8     9   ar
     8     9    10    1
     9    10    11   ar
    10    11    12   ar
    11    12    13   ar
    12    13    14   ar
    13    14    15    1
    14    14    16   ar
    15     2    17    1
    16    17    18    1
    17    18    19   ar
    18    19    20   ar
    19    20    21   ar
    20    21    22   ar
    21    22    23   ar
    22    17    24    1
    23    24    25   ar
    24    25    26   ar
    25    26    27   ar
    26    27    28   ar
    27    28    29   ar
    28     9     4   ar
    29    16    10   ar
    30    23    18   ar
    31    29    24   ar
    32     1     3    1
@<TRIPOS>MOLECULE
*****
 29 32 0 0 0
SMALL
GASTEIGER

@<TRIPOS>ATOM
      1 O         140.2136  143.2289  167.1252 O.3     1  UNL1       -0.3793
      2 C         141.1522  142.7533  166.0561 C.3     1  UNL1        0.1422
      3 H         139.4683  143.6963  166.7166 H       1  UNL1        0.2108
      4 C         140.8503  143.0340  164.6139 C.ar    1  UNL1        0.0226
      5 C         141.2436  144.3483  164.0073 C.ar    1  UNL1        0.0012
      6 C         140.9417  144.6290  162.5651 C.ar    1  UNL1        0.0204
      7 C         140.2464  143.5954  161.7294 C.ar    1  UNL1        0.0988
      8 N         139.8531  142.2812  162.3360 N.ar    1  UNL1       -0.2441
      9 C         140.1550  142.0004  163.7782 C.ar    1  UNL1        0.0796
     10 C         139.7616  140.6862  164.3848 C.ar    1  UNL1        0.0183
     11 C         138.5283  140.5909  165.2331 C.ar    1  UNL1        0.0015
     12 C         138.1349  139.2766  165.8397 C.ar    1  UNL1        0.0009
     13 C         138.9749  138.0576  165.5980 C.ar    1  UNL1        0.0114
     14 C         140.2083  138.1529  164.7497 C.ar    1  UNL1        0.0577
     15 CL        141.0484  136.9339  164.5079 Cl      1  UNL1       -0.0822
     16 C         140.6016  139.4672  164.1431 C.ar    1  UNL1        0.0129
     17 C         142.3927  141.9971  166.4293 C.3     1  UNL1        0.0787
     18 C         142.5056  141.3632  167.7841 C.ar    1  UNL1        0.0035
     19 C         141.8880  140.0199  168.0373 C.ar    1  UNL1       -0.0007
     20 C         142.0009  139.3859  169.3921 C.ar    1  UNL1        0.0204
     21 C         142.7314  140.0953  170.4936 C.ar    1  UNL1        0.0989
     22 N         143.3490  141.4385  170.2403 N.ar    1  UNL1       -0.2426
     23 C         143.2361  142.0725  168.8855 C.ar    1  UNL1        0.0950
     24 C         143.5204  141.8749  165.4477 C.ar    1  UNL1        0.0035
     25 C         143.7808  140.5655  164.7639 C.ar    1  UNL1       -0.0007
     26 C         144.9084  140.4432  163.7823 C.ar    1  UNL1        0.0204
     27 C         145.7756  141.6303  163.4846 C.ar    1  UNL1        0.0989
     28 N         145.5152  142.9397  164.1684 N.ar    1  UNL1       -0.2426
     29 C         144.3876  143.0620  165.1500 C.ar    1  UNL1        0.0950
@<TRIPOS>BOND
     1     1     2    1
     2     2     4    1
     3     4     5   ar
     4     5     6   ar
     5     6     7   ar
     6     7     8   ar
     7     8     9   ar
     8     9    10    1
     9    10    11   ar
    10    11    12   ar
    11    12    13   ar
    12    13    14   ar
    13    14    15    1
    14    14    16   ar
    15     2    17    1
    16    17    18    1
    17    18    19   ar
    18    19    20   ar
    19    20    21   ar
    20    21    22   ar
    21    22    23   ar
    22    17    24    1
    23    24    25   ar
    24    25    26   ar
    25    26    27   ar
    26    27    28   ar
    27    28    29   ar
    28     9     4   ar
    29    16    10   ar
    30    23    18   ar
    31    29    24   ar
    32     1     3    1
@<TRIPOS>MOLECULE
*****
 29 32 0 0 0
SMALL
GASTEIGER

@<TRIPOS>ATOM
      1 O         137.7995  140.3317  165.5557 O.3     1  UNL1       -0.3793
      2 C         138.9837  141.2501  165.4896 C.3     1  UNL1        0.1422
      3 H         137.1323  140.6176  164.9122 H       1  UNL1        0.2108
      4 C         138.9907  142.3965  164.5223 C.ar    1  UNL1        0.0226
      5 C         138.9030  143.8057  165.0288 C.ar    1  UNL1        0.0012
      6 C         138.9101  144.9521  164.0615 C.ar    1  UNL1        0.0204
      7 C         139.0047  144.6894  162.5878 C.ar    1  UNL1        0.0988
      8 N         139.0923  143.2802  162.0813 N.ar    1  UNL1       -0.2441
      9 C         139.0853  142.1338  163.0486 C.ar    1  UNL1        0.0796
     10 C         139.1730  140.7246  162.5421 C.ar    1  UNL1        0.0183
     11 C         137.9227  139.9769  162.1847 C.ar    1  UNL1        0.0015
     12 C         138.0103  138.5677  161.6782 C.ar    1  UNL1        0.0009
     13 C         139.3482  137.9062  161.5291 C.ar    1  UNL1        0.0114
     14 C         140.5985  138.6539  161.8864 C.ar    1  UNL1        0.0577
     15 CL        141.9366  137.9923  161.7373 Cl      1  UNL1       -0.0822
     16 C         140.5109  140.0631  162.3929 C.ar    1  UNL1        0.0129
     17 C         140.1608  141.0220  166.3909 C.3     1  UNL1        0.0787
     18 C         141.3819  140.3254  165.8679 C.ar    1  UNL1        0.0035
     19 C         142.5765  141.1255  165.4402 C.ar    1  UNL1       -0.0007
     20 C         143.7977  140.4289  164.9172 C.ar    1  UNL1        0.0204
     21 C         143.8242  138.9321  164.8219 C.ar    1  UNL1        0.0989
     22 N         142.6297  138.1320  165.2496 N.ar    1  UNL1       -0.2426
     23 C         141.4086  138.8287  165.7726 C.ar    1  UNL1        0.0950
     24 C         140.1168  141.4905  167.8152 C.ar    1  UNL1        0.0035
     25 C         140.5816  142.8733  168.1645 C.ar    1  UNL1       -0.0007
     26 C         140.5376  143.3419  169.5887 C.ar    1  UNL1        0.0204
     27 C         140.0289  142.4277  170.6636 C.ar    1  UNL1        0.0989
     28 N         139.5642  141.0449  170.3143 N.ar    1  UNL1       -0.2426
     29 C         139.6082  140.5764  168.8901 C.ar    1  UNL1        0.0950
@<TRIPOS>BOND
     1     1     2    1
     2     2     4    1
     3     4     5   ar
     4     5     6   ar
     5     6     7   ar
     6     7     8   ar
     7     8     9   ar
     8     9    10    1
     9    10    11   ar
    10    11    12   ar
    11    12    13   ar
    12    13    14   ar
    13    14    15    1
    14    14    16   ar
    15     2    17    1
    16    17    18    1
    17    18    19   ar
    18    19    20   ar
    19    20    21   ar
    20    21    22   ar
    21    22    23   ar
    22    17    24    1
    23    24    25   ar
    24    25    26   ar
    25    26    27   ar
    26    27    28   ar
    27    28    29   ar
    28     9     4   ar
    29    16    10   ar
    30    23    18   ar
    31    29    24   ar
    32     1     3    1
