@<TRIPOS>MOLECULE
*****
 45 50 0 0 0
SMALL
GASTEIGER

@<TRIPOS>ATOM
      1 C         137.9570  142.7253  163.8198 C.3     1  UNL1        0.0932
      2 C         137.7527  142.5713  162.3418 C.3     1  UNL1        0.0286
      3 C         137.7176  141.2031  161.7280 C.3     1  UNL1        0.0193
      4 C         137.8867  139.9887  162.5923 C.3     1  UNL1        0.0700
      5 C         138.0909  140.1427  164.0704 C.3     1  UNL1        0.0193
      6 C         138.1260  141.5110  164.6841 C.3     1  UNL1        0.0286
      7 C         137.9132  140.7178  162.9741 C.3     1  UNL1        0.1562
      8 O         137.9450  141.9550  163.5291 O.3     1  UNL1       -0.3572
      9 N         137.8515  138.6205  161.9786 N.3     1  UNL1       -0.2926
     10 H         137.1293  138.6393  161.2585 H       1  UNL1        0.1236
     11 C         139.0846  138.0529  161.3404 C.3     1  UNL1        0.1152
     12 C         140.4362  138.3659  161.9106 C.ar    1  UNL1        0.0765
     13 C         141.4763  139.0267  161.0553 C.ar    1  UNL1        0.0193
     14 C         142.8279  139.3398  161.6255 C.ar    1  UNL1        0.0411
     15 C         143.1394  138.9921  163.0510 C.ar    1  UNL1        0.1708
     16 C         142.0993  138.3313  163.9063 C.ar    1  UNL1        0.1682
     17 N         140.7477  138.0182  163.3361 N.ar    1  UNL1       -0.2304
     18 N         142.4108  137.9836  165.3318 N.am    1  UNL1       -0.2639
     19 C         143.7624  138.2966  165.9020 C.2     1  UNL1        0.2718
     20 O         144.0739  137.9489  167.3275 O.2     1  UNL1       -0.2707
     21 C         144.8026  138.9574  165.0467 C.3     1  UNL1        0.2898
     22 O         144.4911  139.3051  163.6212 O.3     1  UNL1       -0.4628
     23 H         141.7282  137.5499  165.8931 H       1  UNL1        0.1565
     24 C         137.9921  144.0935  164.4336 C.3     1  UNL1        0.0320
     25 C         139.2993  144.8130  164.5877 C.3     1  UNL1        0.0327
     26 C         143.2100  142.7061  165.3070 C.ar    1  UNL1        0.2249
     27 C         144.2369  142.6379  164.2158 C.ar    1  UNL1        0.0593
     28 C         143.9603  143.2720  162.8849 C.ar    1  UNL1        0.0254
     29 C         142.6568  143.9742  162.6451 C.ar    1  UNL1        0.0990
     30 N         142.3801  144.6083  161.3142 N.ar    1  UNL1       -0.2400
     31 C         141.0766  145.3106  161.0744 C.ar    1  UNL1        0.1281
     32 C         140.0496  145.3788  162.1656 C.ar    1  UNL1        0.1566
     33 F         138.7461  146.0811  161.9258 F       1  UNL1       -0.2028
     34 C         140.3262  144.7448  163.4966 C.ar    1  UNL1        0.0261
     35 C         141.6298  144.0424  163.7363 C.ar    1  UNL1        0.1002
     36 N         141.9065  143.4084  165.0672 N.ar    1  UNL1       -0.2104
     37 O         143.4866  142.0720  166.6380 O.3     1  UNL1       -0.4602
     38 C         142.3856  141.9367  167.6476 C.3     1  UNL1        0.2071
     39 C         142.2107  140.6501  168.3987 C.3     1  UNL1        0.0480
     40 C         140.9287  139.8805  168.2797 C.3     1  UNL1        0.0155
     41 C         139.6187  140.5587  168.5515 C.3     1  UNL1        0.1097
     42 C         139.1206  140.6909  169.9601 C.2     1  UNL1        0.3171
     43 O         138.1466  139.6903  170.5082 O.2     1  UNL1       -0.2501
     44 C         140.0546  143.1045  170.1889 C.3     1  UNL1        0.2556
     45 O         139.5965  141.8235  170.8208 O.3     1  UNL1       -0.4444
@<TRIPOS>BOND
     1    44    45    1
     2    45    42    1
     3    42    43    2
     4    42    41    1
     5    41    40    1
     6    40    39    1
     7    39    38    1
     8    38    37    1
     9    37    26    1
    10    26    27   ar
    11    27    28   ar
    12    28    29   ar
    13    29    30   ar
    14    30    31   ar
    15    31    32   ar
    16    32    33    1
    17    32    34   ar
    18    34    25    1
    19    25    24    1
    20    24     1    1
    21     1     2    1
    22     2     3    1
    23     3     4    1
    24     4     9    1
    25     9    11    1
    26    11    12    1
    27    12    13   ar
    28    13    14   ar
    29    14    15   ar
    30    15    16   ar
    31    16    17   ar
    32    16    18    1
    33    18    19   am
    34    19    20    2
    35    19    21    1
    36    21    22    1
    37     4     5    1
    38     5     6    1
    39     4     7    1
    40     7     8    1
    41    34    35   ar
    42    35    36   ar
    43    36    26   ar
    44    35    29   ar
    45     6     1    1
    46     8     1    1
    47    17    12   ar
    48    22    15    1
    49     9    10    1
    50    18    23    1
@<TRIPOS>MOLECULE
*****
 45 50 0 0 0
SMALL
GASTEIGER

@<TRIPOS>ATOM
      1 C         141.8765  138.1451  163.5437 C.3     1  UNL1        0.0932
      2 C         142.4201  138.4869  162.1881 C.3     1  UNL1        0.0286
      3 C         143.6637  139.3167  162.0661 C.3     1  UNL1        0.0193
      4 C         144.3637  139.8047  163.2997 C.3     1  UNL1        0.0700
      5 C         143.8202  139.4629  164.6553 C.3     1  UNL1        0.0193
      6 C         142.5765  138.6331  164.7773 C.3     1  UNL1        0.0286
      7 C         143.6854  139.3529  163.4168 C.3     1  UNL1        0.1562
      8 O         142.5609  138.6026  163.5272 O.3     1  UNL1       -0.3572
      9 N         145.6073  140.6345  163.1777 N.3     1  UNL1       -0.2926
     10 H         145.8696  140.6288  162.1920 H       1  UNL1        0.1236
     11 C         145.5974  142.0694  163.6148 C.3     1  UNL1        0.1152
     12 C         144.3774  142.9130  163.3917 C.ar    1  UNL1        0.0765
     13 C         143.6236  143.4667  164.5644 C.ar    1  UNL1        0.0193
     14 C         142.4036  144.3103  164.3413 C.ar    1  UNL1        0.0411
     15 C         141.9373  144.6003  162.9454 C.ar    1  UNL1        0.1708
     16 C         142.6910  144.0466  161.7727 C.ar    1  UNL1        0.1682
     17 N         143.9111  143.2030  161.9958 N.ar    1  UNL1       -0.2304
     18 N         142.2248  144.3366  160.3768 N.am    1  UNL1       -0.2639
     19 C         141.0048  145.1802  160.1536 C.2     1  UNL1        0.2718
     20 O         140.5385  145.4702  158.7577 O.2     1  UNL1       -0.2707
     21 C         140.2510  145.7339  161.3264 C.3     1  UNL1        0.2898
     22 O         140.7172  145.4439  162.7223 O.3     1  UNL1       -0.4628
     23 H         142.7195  143.9732  159.6071 H       1  UNL1        0.1565
     24 C         140.6330  137.3153  163.6657 C.3     1  UNL1        0.0320
     25 C         139.3619  137.9375  164.1631 C.3     1  UNL1        0.0327
     26 C         139.6229  142.1661  165.6801 C.ar    1  UNL1        0.2249
     27 C         138.9813  143.2807  164.9081 C.ar    1  UNL1        0.0593
     28 C         138.2528  142.9859  163.6305 C.ar    1  UNL1        0.0254
     29 C         138.1658  141.5764  163.1248 C.ar    1  UNL1        0.0990
     30 N         137.4373  141.2816  161.8472 N.ar    1  UNL1       -0.2400
     31 C         137.3503  139.8721  161.3415 C.ar    1  UNL1        0.1281
     32 C         137.9918  138.7573  162.1135 C.ar    1  UNL1        0.1566
     33 F         137.9048  137.3479  161.6078 F       1  UNL1       -0.2028
     34 C         138.7204  139.0522  163.3911 C.ar    1  UNL1        0.0261
     35 C         138.8073  140.4617  163.8968 C.ar    1  UNL1        0.1002
     36 N         139.5359  140.7566  165.1744 N.ar    1  UNL1       -0.2104
     37 O         140.3514  142.4609  166.9577 O.3     1  UNL1       -0.4602
     38 C         141.6438  141.7632  167.2623 C.3     1  UNL1        0.2071
     39 C         142.3952  142.0909  168.5185 C.3     1  UNL1        0.0480
     40 C         142.9786  140.9891  169.3526 C.3     1  UNL1        0.0155
     41 C         142.1227  140.2746  170.3561 C.3     1  UNL1        0.1097
     42 C         141.0370  141.0155  171.0787 C.2     1  UNL1        0.3171
     43 O         141.3876  142.1295  172.0200 O.2     1  UNL1       -0.2501
     44 C         139.1258  140.2581  169.4900 C.3     1  UNL1        0.2556
     45 O         139.6007  140.6424  170.8600 O.3     1  UNL1       -0.4444
@<TRIPOS>BOND
     1    44    45    1
     2    45    42    1
     3    42    43    2
     4    42    41    1
     5    41    40    1
     6    40    39    1
     7    39    38    1
     8    38    37    1
     9    37    26    1
    10    26    27   ar
    11    27    28   ar
    12    28    29   ar
    13    29    30   ar
    14    30    31   ar
    15    31    32   ar
    16    32    33    1
    17    32    34   ar
    18    34    25    1
    19    25    24    1
    20    24     1    1
    21     1     2    1
    22     2     3    1
    23     3     4    1
    24     4     9    1
    25     9    11    1
    26    11    12    1
    27    12    13   ar
    28    13    14   ar
    29    14    15   ar
    30    15    16   ar
    31    16    17   ar
    32    16    18    1
    33    18    19   am
    34    19    20    2
    35    19    21    1
    36    21    22    1
    37     4     5    1
    38     5     6    1
    39     4     7    1
    40     7     8    1
    41    34    35   ar
    42    35    36   ar
    43    36    26   ar
    44    35    29   ar
    45     6     1    1
    46     8     1    1
    47    17    12   ar
    48    22    15    1
    49     9    10    1
    50    18    23    1
@<TRIPOS>MOLECULE
*****
 45 50 0 0 0
SMALL
GASTEIGER

@<TRIPOS>ATOM
      1 C         138.0451  139.9880  162.4731 C.3     1  UNL1        0.0932
      2 C         138.1911  140.7718  161.2026 C.3     1  UNL1        0.0286
      3 C         138.0692  142.2667  161.2254 C.3     1  UNL1        0.0193
      4 C         137.8013  142.9777  162.5188 C.3     1  UNL1        0.0700
      5 C         137.6552  142.1938  163.7893 C.3     1  UNL1        0.0193
      6 C         137.7771  140.6989  163.7664 C.3     1  UNL1        0.0286
      7 C         137.8600  142.1573  162.5560 C.3     1  UNL1        0.1562
      8 O         137.9702  140.8056  162.5354 O.3     1  UNL1       -0.3572
      9 N         137.6794  144.4725  162.5416 N.3     1  UNL1       -0.2926
     10 H         137.0247  144.7032  163.2889 H       1  UNL1        0.1236
     11 C         138.8976  145.3212  162.7559 C.3     1  UNL1        0.1152
     12 C         140.2566  144.6874  162.7897 C.ar    1  UNL1        0.0765
     13 C         140.8940  144.3494  164.1049 C.ar    1  UNL1        0.0193
     14 C         142.2531  143.7157  164.1387 C.ar    1  UNL1        0.0411
     15 C         142.9749  143.4199  162.8575 C.ar    1  UNL1        0.1708
     16 C         142.3376  143.7579  161.5424 C.ar    1  UNL1        0.1682
     17 N         140.9784  144.3917  161.5085 N.ar    1  UNL1       -0.2304
     18 N         143.0593  143.4622  160.2612 N.am    1  UNL1       -0.2639
     19 C         144.4184  142.8284  160.2950 C.2     1  UNL1        0.2718
     20 O         145.1402  142.5327  159.0138 O.2     1  UNL1       -0.2707
     21 C         145.0558  142.4904  161.6102 C.3     1  UNL1        0.2898
     22 O         144.3341  142.7861  162.8914 O.3     1  UNL1       -0.4628
     23 H         142.6410  143.6840  159.3980 H       1  UNL1        0.1565
     24 C         138.1670  138.4931  162.4503 C.3     1  UNL1        0.0320
     25 C         139.4483  137.8385  162.8743 C.3     1  UNL1        0.0327
     26 C         142.9836  138.8120  165.4827 C.ar    1  UNL1        0.2249
     27 C         144.2821  139.2316  164.8600 C.ar    1  UNL1        0.0593
     28 C         144.4022  139.3267  163.3678 C.ar    1  UNL1        0.0254
     29 C         143.2238  139.0023  162.4984 C.ar    1  UNL1        0.0990
     30 N         143.3438  139.0974  161.0062 N.ar    1  UNL1       -0.2400
     31 C         142.1654  138.7729  160.1368 C.ar    1  UNL1        0.1281
     32 C         140.8668  138.3533  160.7595 C.ar    1  UNL1        0.1566
     33 F         139.6884  138.0288  159.8900 F       1  UNL1       -0.2028
     34 C         140.7468  138.2581  162.2516 C.ar    1  UNL1        0.0261
     35 C         141.9253  138.5826  163.1211 C.ar    1  UNL1        0.1002
     36 N         141.8052  138.4875  164.6132 N.ar    1  UNL1       -0.2104
     37 O         142.8636  138.7168  166.9748 O.3     1  UNL1       -0.4602
     38 C         142.7589  139.9651  167.8000 C.3     1  UNL1        0.2071
     39 C         142.3753  141.2624  167.1521 C.3     1  UNL1        0.0480
     40 C         140.9736  141.7804  167.2829 C.3     1  UNL1        0.0155
     41 C         139.8376  141.0400  166.6416 C.3     1  UNL1        0.1097
     42 C         139.2386  139.8471  167.3257 C.2     1  UNL1        0.3171
     43 O         139.2969  139.7317  168.8202 O.2     1  UNL1       -0.2501
     44 C         137.4012  138.0280  167.0704 C.3     1  UNL1        0.2556
     45 O         138.5812  138.7694  166.5154 O.3     1  UNL1       -0.4444
@<TRIPOS>BOND
     1    44    45    1
     2    45    42    1
     3    42    43    2
     4    42    41    1
     5    41    40    1
     6    40    39    1
     7    39    38    1
     8    38    37    1
     9    37    26    1
    10    26    27   ar
    11    27    28   ar
    12    28    29   ar
    13    29    30   ar
    14    30    31   ar
    15    31    32   ar
    16    32    33    1
    17    32    34   ar
    18    34    25    1
    19    25    24    1
    20    24     1    1
    21     1     2    1
    22     2     3    1
    23     3     4    1
    24     4     9    1
    25     9    11    1
    26    11    12    1
    27    12    13   ar
    28    13    14   ar
    29    14    15   ar
    30    15    16   ar
    31    16    17   ar
    32    16    18    1
    33    18    19   am
    34    19    20    2
    35    19    21    1
    36    21    22    1
    37     4     5    1
    38     5     6    1
    39     4     7    1
    40     7     8    1
    41    34    35   ar
    42    35    36   ar
    43    36    26   ar
    44    35    29   ar
    45     6     1    1
    46     8     1    1
    47    17    12   ar
    48    22    15    1
    49     9    10    1
    50    18    23    1
@<TRIPOS>MOLECULE
*****
 45 50 0 0 0
SMALL
GASTEIGER

@<TRIPOS>ATOM
      1 C         138.5109  140.3517  165.2889 C.3     1  UNL1        0.0932
      2 C         139.4856  141.2599  165.9783 C.3     1  UNL1        0.0286
      3 C         139.5543  142.7103  165.6023 C.3     1  UNL1        0.0193
      4 C         138.6483  143.2527  164.5369 C.3     1  UNL1        0.0700
      5 C         137.6736  142.3445  163.8475 C.3     1  UNL1        0.0193
      6 C         137.6049  140.8940  164.2236 C.3     1  UNL1        0.0286
      7 C         138.5742  142.4509  164.7088 C.3     1  UNL1        0.1562
      8 O         138.5120  141.1393  165.0488 O.3     1  UNL1       -0.3572
      9 N         138.7170  144.7031  164.1609 N.3     1  UNL1       -0.2926
     10 H         139.4766  145.1126  164.7047 H       1  UNL1        0.1236
     11 C         138.9462  145.0975  162.7319 C.3     1  UNL1        0.1152
     12 C         140.1495  144.5863  161.9965 C.ar    1  UNL1        0.0765
     13 C         140.2143  144.6890  160.5014 C.ar    1  UNL1        0.0193
     14 C         141.4176  144.1778  159.7660 C.ar    1  UNL1        0.0411
     15 C         142.5560  143.5640  160.5257 C.ar    1  UNL1        0.1708
     16 C         142.4912  143.4613  162.0207 C.ar    1  UNL1        0.1682
     17 N         141.2879  143.9724  162.7562 N.ar    1  UNL1       -0.2304
     18 N         143.6297  142.8474  162.7804 N.am    1  UNL1       -0.2639
     19 C         144.8329  142.3362  162.0450 C.2     1  UNL1        0.2718
     20 O         145.9714  141.7224  162.8047 O.2     1  UNL1       -0.2707
     21 C         144.8978  142.4389  160.5499 C.3     1  UNL1        0.2898
     22 O         143.7594  143.0528  159.7902 O.3     1  UNL1       -0.4628
     23 H         143.5871  142.7800  163.7617 H       1  UNL1        0.1565
     24 C         138.4422  138.9013  165.6649 C.3     1  UNL1        0.0320
     25 C         138.9185  137.8536  164.7028 C.3     1  UNL1        0.0327
     26 C         143.0600  138.8138  166.1779 C.ar    1  UNL1        0.2249
     27 C         144.1494  139.1350  165.1981 C.ar    1  UNL1        0.0593
     28 C         143.8583  139.1362  163.7267 C.ar    1  UNL1        0.0254
     29 C         142.4778  138.8162  163.2349 C.ar    1  UNL1        0.0990
     30 N         142.1868  138.8174  161.7634 N.ar    1  UNL1       -0.2400
     31 C         140.8063  138.4973  161.2717 C.ar    1  UNL1        0.1281
     32 C         139.7168  138.1760  162.2515 C.ar    1  UNL1        0.1566
     33 F         138.3364  137.8560  161.7598 F       1  UNL1       -0.2028
     34 C         140.0079  138.1749  163.7230 C.ar    1  UNL1        0.0261
     35 C         141.3885  138.4949  164.2147 C.ar    1  UNL1        0.1002
     36 N         141.6795  138.4938  165.6862 N.ar    1  UNL1       -0.2104
     37 O         143.3511  138.8126  167.6494 O.3     1  UNL1       -0.4602
     38 C         142.5367  139.6663  168.5757 C.3     1  UNL1        0.2071
     39 C         142.3557  141.1267  168.2851 C.3     1  UNL1        0.0480
     40 C         142.3496  142.1199  169.4093 C.3     1  UNL1        0.0155
     41 C         141.1559  143.0025  169.6238 C.3     1  UNL1        0.1097
     42 C         140.0515  142.5613  170.5378 C.2     1  UNL1        0.3171
     43 O         139.2032  143.5822  171.2365 O.2     1  UNL1       -0.2501
     44 C         138.9251  140.3410  169.7947 C.3     1  UNL1        0.2556
     45 O         139.7952  141.0991  170.7531 O.3     1  UNL1       -0.4444
@<TRIPOS>BOND
     1    44    45    1
     2    45    42    1
     3    42    43    2
     4    42    41    1
     5    41    40    1
     6    40    39    1
     7    39    38    1
     8    38    37    1
     9    37    26    1
    10    26    27   ar
    11    27    28   ar
    12    28    29   ar
    13    29    30   ar
    14    30    31   ar
    15    31    32   ar
    16    32    33    1
    17    32    34   ar
    18    34    25    1
    19    25    24    1
    20    24     1    1
    21     1     2    1
    22     2     3    1
    23     3     4    1
    24     4     9    1
    25     9    11    1
    26    11    12    1
    27    12    13   ar
    28    13    14   ar
    29    14    15   ar
    30    15    16   ar
    31    16    17   ar
    32    16    18    1
    33    18    19   am
    34    19    20    2
    35    19    21    1
    36    21    22    1
    37     4     5    1
    38     5     6    1
    39     4     7    1
    40     7     8    1
    41    34    35   ar
    42    35    36   ar
    43    36    26   ar
    44    35    29   ar
    45     6     1    1
    46     8     1    1
    47    17    12   ar
    48    22    15    1
    49     9    10    1
    50    18    23    1
@<TRIPOS>MOLECULE
*****
 45 50 0 0 0
SMALL
GASTEIGER

@<TRIPOS>ATOM
      1 C         143.7087  142.1664  163.4636 C.3     1  UNL1        0.0932
      2 C         143.4977  142.6580  162.0622 C.3     1  UNL1        0.0286
      3 C         142.6828  143.8928  161.8152 C.3     1  UNL1        0.0193
      4 C         142.0787  144.6361  162.9697 C.3     1  UNL1        0.0700
      5 C         142.2896  144.1445  164.3711 C.3     1  UNL1        0.0193
      6 C         143.1046  142.9096  164.6180 C.3     1  UNL1        0.0286
      7 C         142.5176  143.9644  163.1546 C.3     1  UNL1        0.1562
      8 O         143.2545  142.8479  163.3779 O.3     1  UNL1       -0.3572
      9 N         141.2638  145.8709  162.7227 N.3     1  UNL1       -0.2926
     10 H         141.6207  146.2927  161.8654 H       1  UNL1        0.1236
     11 C         139.7753  145.7686  162.5678 C.3     1  UNL1        0.1152
     12 C         139.1354  144.4319  162.3364 C.ar    1  UNL1        0.0765
     13 C         138.4054  143.7464  163.4533 C.ar    1  UNL1        0.0193
     14 C         137.7656  142.4096  163.2219 C.ar    1  UNL1        0.0411
     15 C         137.8556  141.7583  161.8737 C.ar    1  UNL1        0.1708
     16 C         138.5855  142.4437  160.7569 C.ar    1  UNL1        0.1682
     17 N         139.2254  143.7805  160.9882 N.ar    1  UNL1       -0.2304
     18 N         138.6755  141.7924  159.4087 N.am    1  UNL1       -0.2639
     19 C         138.0356  140.4556  159.1773 C.2     1  UNL1        0.2718
     20 O         138.1257  139.8043  157.8291 O.2     1  UNL1       -0.2707
     21 C         137.3057  139.7701  160.2942 C.3     1  UNL1        0.2898
     22 O         137.2157  140.4214  161.6424 O.3     1  UNL1       -0.4628
     23 H         139.1546  142.2423  158.6757 H       1  UNL1        0.1565
     24 C         144.5236  140.9316  163.7105 C.3     1  UNL1        0.0320
     25 C         143.8887  139.7275  164.3409 C.3     1  UNL1        0.0327
     26 C         139.9028  140.4098  166.3149 C.ar    1  UNL1        0.2249
     27 C         138.6597  139.8188  165.7188 C.ar    1  UNL1        0.0593
     28 C         138.7452  139.0005  164.4646 C.ar    1  UNL1        0.0254
     29 C         140.0738  138.7730  163.8066 C.ar    1  UNL1        0.0990
     30 N         140.1593  137.9547  162.5524 N.ar    1  UNL1       -0.2400
     31 C         141.4879  137.7272  161.8944 C.ar    1  UNL1        0.1281
     32 C         142.7311  138.3182  162.4905 C.ar    1  UNL1        0.1566
     33 F         144.0597  138.0908  161.8325 F       1  UNL1       -0.2028
     34 C         142.6456  139.1366  163.7447 C.ar    1  UNL1        0.0261
     35 C         141.3169  139.3640  164.4027 C.ar    1  UNL1        0.1002
     36 N         141.2314  140.1824  165.6569 N.ar    1  UNL1       -0.2104
     37 O         139.8173  141.2282  167.5691 O.3     1  UNL1       -0.4602
     38 C         140.5779  142.5164  167.6773 C.3     1  UNL1        0.2071
     39 C         141.7499  142.6195  168.6078 C.3     1  UNL1        0.0480
     40 C         142.8167  141.5651  168.5901 C.3     1  UNL1        0.0155
     41 C         143.0416  140.7054  169.7985 C.3     1  UNL1        0.1097
     42 C         142.3376  139.3866  169.9223 C.2     1  UNL1        0.3171
     43 O         143.1319  138.1159  169.9901 O.2     1  UNL1       -0.2501
     44 C         140.0953  140.2304  170.9274 C.3     1  UNL1        0.2556
     45 O         140.8394  139.3385  169.9782 O.3     1  UNL1       -0.4444
@<TRIPOS>BOND
     1    44    45    1
     2    45    42    1
     3    42    43    2
     4    42    41    1
     5    41    40    1
     6    40    39    1
     7    39    38    1
     8    38    37    1
     9    37    26    1
    10    26    27   ar
    11    27    28   ar
    12    28    29   ar
    13    29    30   ar
    14    30    31   ar
    15    31    32   ar
    16    32    33    1
    17    32    34   ar
    18    34    25    1
    19    25    24    1
    20    24     1    1
    21     1     2    1
    22     2     3    1
    23     3     4    1
    24     4     9    1
    25     9    11    1
    26    11    12    1
    27    12    13   ar
    28    13    14   ar
    29    14    15   ar
    30    15    16   ar
    31    16    17   ar
    32    16    18    1
    33    18    19   am
    34    19    20    2
    35    19    21    1
    36    21    22    1
    37     4     5    1
    38     5     6    1
    39     4     7    1
    40     7     8    1
    41    34    35   ar
    42    35    36   ar
    43    36    26   ar
    44    35    29   ar
    45     6     1    1
    46     8     1    1
    47    17    12   ar
    48    22    15    1
    49     9    10    1
    50    18    23    1
@<TRIPOS>MOLECULE
*****
 45 50 0 0 0
SMALL
GASTEIGER

@<TRIPOS>ATOM
      1 C         143.7198  143.4507  164.1939 C.3     1  UNL1        0.0932
      2 C         142.6472  143.0022  165.1416 C.3     1  UNL1        0.0286
      3 C         141.2764  143.6061  165.0630 C.3     1  UNL1        0.0193
      4 C         140.9782  144.6585  164.0365 C.3     1  UNL1        0.0700
      5 C         142.0508  145.1070  163.0887 C.3     1  UNL1        0.0193
      6 C         143.4217  144.5031  163.1674 C.3     1  UNL1        0.0286
      7 C         141.7443  144.3568  164.0413 C.3     1  UNL1        0.1562
      8 O         142.9838  143.8107  164.1124 O.3     1  UNL1       -0.3572
      9 N         139.6074  145.2624  163.9578 N.3     1  UNL1       -0.2926
     10 H         139.7300  146.2356  163.6784 H       1  UNL1        0.1236
     11 C         138.5802  144.6736  163.0369 C.3     1  UNL1        0.1152
     12 C         138.4793  143.1853  162.8793 C.ar    1  UNL1        0.0765
     13 C         137.9015  142.3515  163.9843 C.ar    1  UNL1        0.0193
     14 C         137.8007  140.8632  163.8267 C.ar    1  UNL1        0.0411
     15 C         138.2776  140.2087  162.5641 C.ar    1  UNL1        0.1708
     16 C         138.8554  141.0424  161.4591 C.ar    1  UNL1        0.1682
     17 N         138.9563  142.5308  161.6167 N.ar    1  UNL1       -0.2304
     18 N         139.3324  140.3879  160.1966 N.am    1  UNL1       -0.2639
     19 C         139.2316  138.8997  160.0389 C.2     1  UNL1        0.2718
     20 O         139.7085  138.2451  158.7764 O.2     1  UNL1       -0.2707
     21 C         138.6538  138.0658  161.1440 C.3     1  UNL1        0.2898
     22 O         138.1768  138.7204  162.4065 O.3     1  UNL1       -0.4628
     23 H         139.7116  140.9351  159.4713 H       1  UNL1        0.1565
     24 C         145.0906  142.8468  164.2725 C.3     1  UNL1        0.0320
     25 C         145.4689  141.7229  163.3540 C.3     1  UNL1        0.0327
     26 C         143.0204  138.6839  165.5944 C.ar    1  UNL1        0.2249
     27 C         141.9539  137.9069  164.8812 C.ar    1  UNL1        0.0593
     28 C         141.7035  138.1428  163.4212 C.ar    1  UNL1        0.0254
     29 C         142.5197  139.1558  162.6744 C.ar    1  UNL1        0.0990
     30 N         142.2693  139.3917  161.2144 N.ar    1  UNL1       -0.2400
     31 C         143.0854  140.4047  160.4676 C.ar    1  UNL1        0.1281
     32 C         144.1520  141.1818  161.1808 C.ar    1  UNL1        0.1566
     33 F         144.9682  142.1947  160.4340 F       1  UNL1       -0.2028
     34 C         144.4024  140.9458  162.6408 C.ar    1  UNL1        0.0261
     35 C         143.5862  139.9328  163.3876 C.ar    1  UNL1        0.1002
     36 N         143.8365  139.6969  164.8476 N.ar    1  UNL1       -0.2104
     37 O         143.2708  138.4480  167.0544 O.3     1  UNL1       -0.4602
     38 C         142.5521  139.2719  168.0813 C.3     1  UNL1        0.2071
     39 C         141.7120  140.4384  167.6530 C.3     1  UNL1        0.0480
     40 C         140.2157  140.3364  167.6836 C.3     1  UNL1        0.0155
     41 C         139.4786  140.5086  168.9786 C.3     1  UNL1        0.1097
     42 C         139.9209  141.5529  169.9602 C.2     1  UNL1        0.3171
     43 O         139.7611  143.0076  169.6307 O.2     1  UNL1       -0.2501
     44 C         142.0020  140.9166  171.3794 C.3     1  UNL1        0.2556
     45 O         140.5231  141.1427  171.2714 O.3     1  UNL1       -0.4444
@<TRIPOS>BOND
     1    44    45    1
     2    45    42    1
     3    42    43    2
     4    42    41    1
     5    41    40    1
     6    40    39    1
     7    39    38    1
     8    38    37    1
     9    37    26    1
    10    26    27   ar
    11    27    28   ar
    12    28    29   ar
    13    29    30   ar
    14    30    31   ar
    15    31    32   ar
    16    32    33    1
    17    32    34   ar
    18    34    25    1
    19    25    24    1
    20    24     1    1
    21     1     2    1
    22     2     3    1
    23     3     4    1
    24     4     9    1
    25     9    11    1
    26    11    12    1
    27    12    13   ar
    28    13    14   ar
    29    14    15   ar
    30    15    16   ar
    31    16    17   ar
    32    16    18    1
    33    18    19   am
    34    19    20    2
    35    19    21    1
    36    21    22    1
    37     4     5    1
    38     5     6    1
    39     4     7    1
    40     7     8    1
    41    34    35   ar
    42    35    36   ar
    43    36    26   ar
    44    35    29   ar
    45     6     1    1
    46     8     1    1
    47    17    12   ar
    48    22    15    1
    49     9    10    1
    50    18    23    1
@<TRIPOS>MOLECULE
*****
 45 50 0 0 0
SMALL
GASTEIGER

@<TRIPOS>ATOM
      1 C         138.3986  139.4340  163.4630 C.3     1  UNL1        0.0932
      2 C         137.8339  140.3454  162.4139 C.3     1  UNL1        0.0286
      3 C         137.6370  141.8020  162.7130 C.3     1  UNL1        0.0193
      4 C         138.0047  142.3473  164.0612 C.3     1  UNL1        0.0700
      5 C         138.5694  141.4359  165.1102 C.3     1  UNL1        0.0193
      6 C         138.7663  139.9792  164.8111 C.3     1  UNL1        0.0286
      7 C         138.1307  141.5421  163.9439 C.3     1  UNL1        0.1562
      8 O         138.3088  140.2250  163.6735 O.3     1  UNL1       -0.3572
      9 N         137.8078  143.8039  164.3603 N.3     1  UNL1       -0.2926
     10 H         137.4962  143.8660  165.3295 H       1  UNL1        0.1236
     11 C         138.9526  144.7616  164.2113 C.3     1  UNL1        0.1152
     12 C         139.8423  144.6853  163.0061 C.ar    1  UNL1        0.0765
     13 C         141.1863  144.0266  163.1065 C.ar    1  UNL1        0.0193
     14 C         142.0760  143.9503  161.9013 C.ar    1  UNL1        0.0411
     15 C         141.6218  144.5327  160.5957 C.ar    1  UNL1        0.1708
     16 C         140.2780  145.1914  160.4953 C.ar    1  UNL1        0.1682
     17 N         139.3882  145.2677  161.7005 N.ar    1  UNL1       -0.2304
     18 N         139.8239  145.7738  159.1897 N.am    1  UNL1       -0.2639
     19 C         140.7136  145.6975  157.9845 C.2     1  UNL1        0.2718
     20 O         140.2594  146.2799  156.6789 O.2     1  UNL1       -0.2707
     21 C         142.0575  145.0388  158.0848 C.3     1  UNL1        0.2898
     22 O         142.5116  144.4563  159.3904 O.3     1  UNL1       -0.4628
     23 H         138.9418  146.2061  159.1238 H       1  UNL1        0.1565
     24 C         138.5955  137.9774  163.1639 C.3     1  UNL1        0.0320
     25 C         139.9818  137.4148  163.0550 C.3     1  UNL1        0.0327
     26 C         143.5865  138.7864  165.3733 C.ar    1  UNL1        0.2249
     27 C         144.6638  139.5738  164.6882 C.ar    1  UNL1        0.0593
     28 C         144.5395  139.9041  163.2303 C.ar    1  UNL1        0.0254
     29 C         143.3379  139.4469  162.4575 C.ar    1  UNL1        0.0990
     30 N         143.2136  139.7772  160.9996 N.ar    1  UNL1       -0.2400
     31 C         142.0121  139.3200  160.2268 C.ar    1  UNL1        0.1281
     32 C         140.9347  138.5325  160.9119 C.ar    1  UNL1        0.1566
     33 F         139.7332  138.0754  160.1392 F       1  UNL1       -0.2028
     34 C         141.0590  138.2023  162.3698 C.ar    1  UNL1        0.0261
     35 C         142.2607  138.6595  163.1426 C.ar    1  UNL1        0.1002
     36 N         142.3850  138.3292  164.6005 N.ar    1  UNL1       -0.2104
     37 O         143.7108  138.4561  166.8312 O.3     1  UNL1       -0.4602
     38 C         142.8247  139.1359  167.8324 C.3     1  UNL1        0.2071
     39 C         142.1491  140.4282  167.4807 C.3     1  UNL1        0.0480
     40 C         140.7432  140.6875  167.9350 C.3     1  UNL1        0.0155
     41 C         140.1800  139.9299  169.1007 C.3     1  UNL1        0.1097
     42 C         139.1408  140.5648  169.9763 C.2     1  UNL1        0.3171
     43 O         137.8899  139.8126  170.3220 O.2     1  UNL1       -0.2501
     44 C         140.6710  142.3298  171.1137 C.3     1  UNL1        0.2556
     45 O         139.3524  141.9520  170.5064 O.3     1  UNL1       -0.4444
@<TRIPOS>BOND
     1    44    45    1
     2    45    42    1
     3    42    43    2
     4    42    41    1
     5    41    40    1
     6    40    39    1
     7    39    38    1
     8    38    37    1
     9    37    26    1
    10    26    27   ar
    11    27    28   ar
    12    28    29   ar
    13    29    30   ar
    14    30    31   ar
    15    31    32   ar
    16    32    33    1
    17    32    34   ar
    18    34    25    1
    19    25    24    1
    20    24     1    1
    21     1     2    1
    22     2     3    1
    23     3     4    1
    24     4     9    1
    25     9    11    1
    26    11    12    1
    27    12    13   ar
    28    13    14   ar
    29    14    15   ar
    30    15    16   ar
    31    16    17   ar
    32    16    18    1
    33    18    19   am
    34    19    20    2
    35    19    21    1
    36    21    22    1
    37     4     5    1
    38     5     6    1
    39     4     7    1
    40     7     8    1
    41    34    35   ar
    42    35    36   ar
    43    36    26   ar
    44    35    29   ar
    45     6     1    1
    46     8     1    1
    47    17    12   ar
    48    22    15    1
    49     9    10    1
    50    18    23    1
@<TRIPOS>MOLECULE
*****
 45 50 0 0 0
SMALL
GASTEIGER

@<TRIPOS>ATOM
      1 C         139.7227  143.9576  163.3327 C.3     1  UNL1        0.0932
      2 C         140.1769  143.5602  164.7059 C.3     1  UNL1        0.0286
      3 C         141.6361  143.5931  165.0520 C.3     1  UNL1        0.0193
      4 C         142.6410  144.0235  164.0249 C.3     1  UNL1        0.0700
      5 C         142.1868  144.4209  162.6516 C.3     1  UNL1        0.0193
      6 C         140.7275  144.3879  162.3056 C.3     1  UNL1        0.0286
      7 C         141.8523  144.0215  163.7886 C.3     1  UNL1        0.1562
      8 O         140.5329  143.9917  163.4757 O.3     1  UNL1       -0.3572
      9 N         144.1001  144.0564  164.3710 N.3     1  UNL1       -0.2926
     10 H         144.1748  144.4908  165.2909 H       1  UNL1        0.1236
     11 C         144.8861  142.7802  164.4296 C.3     1  UNL1        0.1152
     12 C         144.3332  141.5299  163.8124 C.ar    1  UNL1        0.0765
     13 C         143.7383  140.4632  164.6832 C.ar    1  UNL1        0.0193
     14 C         143.1854  139.2129  164.0660 C.ar    1  UNL1        0.0411
     15 C         143.2274  139.0292  162.5779 C.ar    1  UNL1        0.1708
     16 C         143.8222  140.0958  161.7070 C.ar    1  UNL1        0.1682
     17 N         144.3752  141.3462  162.3242 N.ar    1  UNL1       -0.2304
     18 N         143.8642  139.9121  160.2189 N.am    1  UNL1       -0.2639
     19 C         143.3113  138.6618  159.6016 C.2     1  UNL1        0.2718
     20 O         143.3533  138.4781  158.1135 O.2     1  UNL1       -0.2707
     21 C         142.7164  137.5951  160.4725 C.3     1  UNL1        0.2898
     22 O         142.6744  137.7788  161.9606 O.3     1  UNL1       -0.4628
     23 H         144.2546  140.6122  159.6473 H       1  UNL1        0.1565
     24 C         138.2636  143.9246  162.9866 C.3     1  UNL1        0.0320
     25 C         137.5125  142.6268  163.0260 C.3     1  UNL1        0.0327
     26 C         138.6225  139.2989  165.8444 C.ar    1  UNL1        0.2249
     27 C         139.2583  138.0480  165.3144 C.ar    1  UNL1        0.0593
     28 C         139.5242  137.9064  163.8450 C.ar    1  UNL1        0.0254
     29 C         139.1542  139.0156  162.9055 C.ar    1  UNL1        0.0990
     30 N         139.4201  138.8740  161.4361 N.ar    1  UNL1       -0.2400
     31 C         139.0501  139.9832  160.4966 C.ar    1  UNL1        0.1281
     32 C         138.4142  141.2342  161.0266 C.ar    1  UNL1        0.1566
     33 F         138.0442  142.3435  160.0871 F       1  UNL1       -0.2028
     34 C         138.1483  141.3759  162.4960 C.ar    1  UNL1        0.0261
     35 C         138.5183  140.2665  163.4355 C.ar    1  UNL1        0.1002
     36 N         138.2525  140.4082  164.9049 N.ar    1  UNL1       -0.2104
     37 O         138.3566  139.4405  167.3138 O.3     1  UNL1       -0.4602
     38 C         139.4325  139.9530  168.2247 C.3     1  UNL1        0.2071
     39 C         140.3620  141.0324  167.7546 C.3     1  UNL1        0.0480
     40 C         140.1299  142.4552  168.1693 C.3     1  UNL1        0.0155
     41 C         140.8957  143.0350  169.3213 C.3     1  UNL1        0.1097
     42 C         140.4432  142.7780  170.7281 C.2     1  UNL1        0.3171
     43 O         139.1356  143.3342  171.2089 O.2     1  UNL1       -0.2501
     44 C         142.0640  140.7872  171.1279 C.3     1  UNL1        0.2556
     45 O         141.2981  141.9647  171.6542 O.3     1  UNL1       -0.4444
@<TRIPOS>BOND
     1    44    45    1
     2    45    42    1
     3    42    43    2
     4    42    41    1
     5    41    40    1
     6    40    39    1
     7    39    38    1
     8    38    37    1
     9    37    26    1
    10    26    27   ar
    11    27    28   ar
    12    28    29   ar
    13    29    30   ar
    14    30    31   ar
    15    31    32   ar
    16    32    33    1
    17    32    34   ar
    18    34    25    1
    19    25    24    1
    20    24     1    1
    21     1     2    1
    22     2     3    1
    23     3     4    1
    24     4     9    1
    25     9    11    1
    26    11    12    1
    27    12    13   ar
    28    13    14   ar
    29    14    15   ar
    30    15    16   ar
    31    16    17   ar
    32    16    18    1
    33    18    19   am
    34    19    20    2
    35    19    21    1
    36    21    22    1
    37     4     5    1
    38     5     6    1
    39     4     7    1
    40     7     8    1
    41    34    35   ar
    42    35    36   ar
    43    36    26   ar
    44    35    29   ar
    45     6     1    1
    46     8     1    1
    47    17    12   ar
    48    22    15    1
    49     9    10    1
    50    18    23    1
@<TRIPOS>MOLECULE
*****
 45 50 0 0 0
SMALL
GASTEIGER

@<TRIPOS>ATOM
      1 C         138.0855  142.4834  164.1833 C.3     1  UNL1        0.0932
      2 C         137.5531  142.1656  162.8175 C.3     1  UNL1        0.0286
      3 C         137.6429  140.7665  162.2843 C.3     1  UNL1        0.0193
      4 C         138.2651  139.6850  163.1170 C.3     1  UNL1        0.0700
      5 C         138.7975  140.0027  164.4829 C.3     1  UNL1        0.0193
      6 C         138.7077  141.4020  165.0160 C.3     1  UNL1        0.0286
      7 C         138.2383  140.4368  163.4518 C.3     1  UNL1        0.1562
      8 O         138.1572  141.7019  163.9339 O.3     1  UNL1       -0.3572
      9 N         138.3548  138.2859  162.5839 N.3     1  UNL1       -0.2926
     10 H         137.4136  138.0203  162.2939 H       1  UNL1        0.1236
     11 C         139.2654  137.9791  161.4321 C.3     1  UNL1        0.1152
     12 C         140.5296  138.7647  161.2456 C.ar    1  UNL1        0.0765
     13 C         141.7542  138.4141  162.0376 C.ar    1  UNL1        0.0193
     14 C         143.0184  139.1996  161.8512 C.ar    1  UNL1        0.0411
     15 C         143.0579  140.3358  160.8726 C.ar    1  UNL1        0.1708
     16 C         141.8333  140.6864  160.0805 C.ar    1  UNL1        0.1682
     17 N         140.5691  139.9008  160.2670 N.ar    1  UNL1       -0.2304
     18 N         141.8729  141.8226  159.1020 N.am    1  UNL1       -0.2639
     19 C         143.1370  142.6081  158.9155 C.2     1  UNL1        0.2718
     20 O         143.1765  143.7443  157.9369 O.2     1  UNL1       -0.2707
     21 C         144.3617  142.2575  159.7076 C.3     1  UNL1        0.2898
     22 O         144.3221  141.1214  160.6861 O.3     1  UNL1       -0.4628
     23 H         141.0691  142.0527  158.5821 H       1  UNL1        0.1565
     24 C         137.9958  143.8825  164.7165 C.3     1  UNL1        0.0320
     25 C         139.2366  144.7144  164.8524 C.3     1  UNL1        0.0327
     26 C         143.1862  142.7426  165.7256 C.ar    1  UNL1        0.2249
     27 C         144.2467  142.6862  164.6663 C.ar    1  UNL1        0.0593
     28 C         143.9907  143.2871  163.3160 C.ar    1  UNL1        0.0254
     29 C         142.6742  143.9443  163.0249 C.ar    1  UNL1        0.0990
     30 N         142.4182  144.5452  161.6746 N.ar    1  UNL1       -0.2400
     31 C         141.1017  145.2025  161.3835 C.ar    1  UNL1        0.1281
     32 C         140.0411  145.2589  162.4428 C.ar    1  UNL1        0.1566
     33 F         138.7246  145.9161  162.1517 F       1  UNL1       -0.2028
     34 C         140.2971  144.6580  163.7931 C.ar    1  UNL1        0.0261
     35 C         141.6137  144.0007  164.0842 C.ar    1  UNL1        0.1002
     36 N         141.8697  143.3998  165.4345 N.ar    1  UNL1       -0.2104
     37 O         143.4422  142.1417  167.0759 O.3     1  UNL1       -0.4602
     38 C         142.3053  141.9334  168.0319 C.3     1  UNL1        0.2071
     39 C         141.9703  140.5514  168.5092 C.3     1  UNL1        0.0480
     40 C         140.7614  139.8447  167.9712 C.3     1  UNL1        0.0155
     41 C         139.4104  140.1111  168.5659 C.3     1  UNL1        0.1097
     42 C         139.2872  140.4691  170.0173 C.2     1  UNL1        0.3171
     43 O         139.5287  139.4279  171.0698 O.2     1  UNL1       -0.2501
     44 C         139.9998  142.8621  170.7357 C.3     1  UNL1        0.2556
     45 O         138.9225  141.8683  170.4163 O.3     1  UNL1       -0.4444
@<TRIPOS>BOND
     1    44    45    1
     2    45    42    1
     3    42    43    2
     4    42    41    1
     5    41    40    1
     6    40    39    1
     7    39    38    1
     8    38    37    1
     9    37    26    1
    10    26    27   ar
    11    27    28   ar
    12    28    29   ar
    13    29    30   ar
    14    30    31   ar
    15    31    32   ar
    16    32    33    1
    17    32    34   ar
    18    34    25    1
    19    25    24    1
    20    24     1    1
    21     1     2    1
    22     2     3    1
    23     3     4    1
    24     4     9    1
    25     9    11    1
    26    11    12    1
    27    12    13   ar
    28    13    14   ar
    29    14    15   ar
    30    15    16   ar
    31    16    17   ar
    32    16    18    1
    33    18    19   am
    34    19    20    2
    35    19    21    1
    36    21    22    1
    37     4     5    1
    38     5     6    1
    39     4     7    1
    40     7     8    1
    41    34    35   ar
    42    35    36   ar
    43    36    26   ar
    44    35    29   ar
    45     6     1    1
    46     8     1    1
    47    17    12   ar
    48    22    15    1
    49     9    10    1
    50    18    23    1
