@<TRIPOS>MOLECULE
*****
 44 48 0 0 0
SMALL
GASTEIGER

@<TRIPOS>ATOM
      1 C         139.2550  141.4096  161.8977 C.ar    1  UNL1        0.1726
      2 C         140.5302  140.6530  161.6708 C.ar    1  UNL1        0.0443
      3 C         141.7328  141.3588  161.1178 C.ar    1  UNL1        0.0527
      4 C         143.0080  140.6022  160.8909 C.ar    1  UNL1        0.1368
      5 N         144.2105  141.3079  160.3378 N.ar    1  UNL1       -0.2089
      6 C         144.1378  142.7701  160.0117 C.ar    1  UNL1        0.2000
      7 N         142.8626  143.5267  160.2385 N.ar    1  UNL1       -0.2238
      8 C         141.6601  142.8210  160.7916 C.ar    1  UNL1        0.0890
      9 C         140.3849  143.5776  161.0184 C.ar    1  UNL1        0.0593
     10 C         139.1824  142.8719  161.5715 C.ar    1  UNL1        0.1737
     11 C         137.9846  139.2057  162.4256 C.3     1  UNL1        0.2526
     12 O         138.0525  140.7039  162.4507 O.3     1  UNL1       -0.4684
     13 N         143.0806  139.1398  161.2171 N.pl3   1  UNL1       -0.2781
     14 H         143.2785  138.4865  160.5077 H       1  UNL1        0.1555
     15 C         142.8517  138.6730  162.6241 C.ar    1  UNL1        0.1643
     16 N         141.7309  137.7913  163.0892 N.ar    1  UNL1       -0.2227
     17 C         141.8899  137.5793  164.5656 C.ar    1  UNL1        0.1035
     18 C         143.1090  138.3301  165.0130 C.ar    1  UNL1        0.0382
     19 S         143.7034  139.0060  163.8131 S.2     1  UNL1       -0.0552
     20 C         143.6403  138.3937  166.4143 C.3     1  UNL1        0.1198
     21 C         142.8567  139.0973  167.4823 C.2     1  UNL1        0.2311
     22 O         143.0896  138.7639  168.9261 O.2     1  UNL1       -0.2744
     23 N         141.8400  140.1342  167.1066 N.am    1  UNL1       -0.2836
     24 H         141.6871  140.3530  166.1590 H       1  UNL1        0.1549
     25 C         141.0563  140.8378  168.1747 C.ar    1  UNL1        0.0526
     26 C         139.9876  140.1027  168.9281 C.ar    1  UNL1        0.0148
     27 C         139.2039  140.8063  169.9962 C.ar    1  UNL1        0.0036
     28 C         139.4888  142.2449  170.3109 C.ar    1  UNL1        0.0297
     29 C         140.5575  142.9801  169.5575 C.ar    1  UNL1        0.1414
     30 F         140.8425  144.4187  169.8721 F       1  UNL1       -0.2041
     31 C         141.3412  142.2765  168.4894 C.ar    1  UNL1        0.0443
     32 O         137.9072  143.6285  161.7983 O.3     1  UNL1       -0.4723
     33 C         137.7291  144.4410  163.0466 C.3     1  UNL1        0.2070
     34 C         138.6198  144.2031  164.2298 C.3     1  UNL1        0.0646
     35 C         139.8577  145.0296  164.4149 C.3     1  UNL1        0.0759
     36 N         141.2097  144.3862  164.3245 N.3     1  UNL1       -0.2726
     37 C         141.3964  142.9671  164.7732 C.3     1  UNL1        0.0722
     38 C         142.7483  142.3236  164.6828 C.3     1  UNL1        0.0199
     39 C         143.9136  143.0992  164.1435 C.3     1  UNL1        0.0321
     40 C         143.7268  144.5183  163.6948 C.3     1  UNL1        0.0199
     41 C         142.3749  145.1617  163.7853 C.3     1  UNL1        0.0722
     42 C         145.2655  142.4558  164.0530 C.3     1  UNL1        0.1372
     43 O         145.8214  142.0634  162.7162 O.3     1  UNL1       -0.3820
     44 H         145.2787  141.3551  162.3356 H       1  UNL1        0.2104
@<TRIPOS>BOND
     1    11    12    1
     2    12     1    1
     3     1     2   ar
     4     2     3   ar
     5     3     4   ar
     6     4    13    1
     7    13    15    1
     8    15    16   ar
     9    16    17   ar
    10    17    18   ar
    11    18    20    1
    12    20    21    1
    13    21    22    2
    14    21    23   am
    15    23    25    1
    16    25    26   ar
    17    26    27   ar
    18    27    28   ar
    19    28    29   ar
    20    29    30    1
    21    29    31   ar
    22    18    19   ar
    23     4     5   ar
    24     5     6   ar
    25     6     7   ar
    26     7     8   ar
    27     8     9   ar
    28     9    10   ar
    29    10    32    1
    30    32    33    1
    31    33    34    1
    32    34    35    1
    33    35    36    1
    34    36    37    1
    35    37    38    1
    36    38    39    1
    37    39    42    1
    38    42    43    1
    39    39    40    1
    40    40    41    1
    41    10     1   ar
    42    41    36    1
    43     8     3   ar
    44    19    15   ar
    45    31    25   ar
    46    13    14    1
    47    23    24    1
    48    43    44    1
@<TRIPOS>MOLECULE
*****
 44 48 0 0 0
SMALL
GASTEIGER

@<TRIPOS>ATOM
      1 C         138.9771  142.4320  160.8497 C.ar    1  UNL1        0.1726
      2 C         139.2277  140.9555  160.9331 C.ar    1  UNL1        0.0443
      3 C         140.4365  140.3615  160.2728 C.ar    1  UNL1        0.0527
      4 C         140.6872  138.8849  160.3562 C.ar    1  UNL1        0.1368
      5 N         141.8959  138.2909  159.6959 N.ar    1  UNL1       -0.2089
      6 C         142.8540  139.1734  158.9523 C.ar    1  UNL1        0.2000
      7 N         142.6034  140.6499  158.8689 N.ar    1  UNL1       -0.2238
      8 C         141.3947  141.2440  159.5291 C.ar    1  UNL1        0.0890
      9 C         141.1440  142.7205  159.4457 C.ar    1  UNL1        0.0593
     10 C         139.9353  143.3146  160.1060 C.ar    1  UNL1        0.1737
     11 C         137.5645  142.8633  162.9871 C.3     1  UNL1        0.2526
     12 O         137.7683  143.0261  161.5100 O.3     1  UNL1       -0.4684
     13 N         139.7290  138.0023  161.0999 N.pl3   1  UNL1       -0.2781
     14 H         139.0812  137.4511  160.6041 H       1  UNL1        0.1555
     15 C         139.7577  137.9597  162.5990 C.ar    1  UNL1        0.1643
     16 N         140.7918  137.2741  163.4419 N.ar    1  UNL1       -0.2227
     17 C         140.4307  137.4858  164.8823 C.ar    1  UNL1        0.1035
     18 C         139.1733  138.3024  164.9296 C.ar    1  UNL1        0.0382
     19 S         138.7574  138.5953  163.5185 S.2     1  UNL1       -0.0552
     20 C         138.4574  138.7479  166.1703 C.3     1  UNL1        0.1198
     21 C         139.1831  139.5540  167.2063 C.2     1  UNL1        0.2311
     22 O         138.7436  139.5031  168.6395 O.2     1  UNL1       -0.2744
     23 N         140.3484  140.4110  166.8092 N.am    1  UNL1       -0.2836
     24 H         140.6369  140.4444  165.8685 H       1  UNL1        0.1549
     25 C         141.0741  141.2171  167.8453 C.ar    1  UNL1        0.0526
     26 C         142.4172  140.7680  168.3397 C.ar    1  UNL1        0.0148
     27 C         143.1429  141.5742  169.3758 C.ar    1  UNL1        0.0036
     28 C         142.5256  142.8294  169.9175 C.ar    1  UNL1        0.0297
     29 C         141.1824  143.2785  169.4230 C.ar    1  UNL1        0.1414
     30 F         140.5651  144.5336  169.9646 F       1  UNL1       -0.2041
     31 C         140.4567  142.4723  168.3869 C.ar    1  UNL1        0.0443
     32 O         139.6847  144.7911  160.0226 O.3     1  UNL1       -0.4723
     33 C         140.3305  145.7184  161.0090 C.3     1  UNL1        0.2070
     34 C         140.1084  145.5222  162.4794 C.3     1  UNL1        0.0646
     35 C         141.2485  145.1072  163.3614 C.3     1  UNL1        0.0759
     36 N         141.9462  143.8014  163.1206 N.3     1  UNL1       -0.2726
     37 C         143.2141  143.7649  162.3199 C.3     1  UNL1        0.0722
     38 C         143.9118  142.4591  162.0792 C.3     1  UNL1        0.0199
     39 C         143.3416  141.1897  162.6392 C.3     1  UNL1        0.0321
     40 C         142.0737  141.2262  163.4399 C.3     1  UNL1        0.0199
     41 C         141.3760  142.5320  163.6806 C.3     1  UNL1        0.0722
     42 C         144.0393  139.8838  162.3985 C.3     1  UNL1        0.1372
     43 O         143.2796  138.5954  162.5125 O.3     1  UNL1       -0.3820
     44 H         143.0021  138.4640  163.4327 H       1  UNL1        0.2104
@<TRIPOS>BOND
     1    11    12    1
     2    12     1    1
     3     1     2   ar
     4     2     3   ar
     5     3     4   ar
     6     4    13    1
     7    13    15    1
     8    15    16   ar
     9    16    17   ar
    10    17    18   ar
    11    18    20    1
    12    20    21    1
    13    21    22    2
    14    21    23   am
    15    23    25    1
    16    25    26   ar
    17    26    27   ar
    18    27    28   ar
    19    28    29   ar
    20    29    30    1
    21    29    31   ar
    22    18    19   ar
    23     4     5   ar
    24     5     6   ar
    25     6     7   ar
    26     7     8   ar
    27     8     9   ar
    28     9    10   ar
    29    10    32    1
    30    32    33    1
    31    33    34    1
    32    34    35    1
    33    35    36    1
    34    36    37    1
    35    37    38    1
    36    38    39    1
    37    39    42    1
    38    42    43    1
    39    39    40    1
    40    40    41    1
    41    10     1   ar
    42    41    36    1
    43     8     3   ar
    44    19    15   ar
    45    31    25   ar
    46    13    14    1
    47    23    24    1
    48    43    44    1
@<TRIPOS>MOLECULE
*****
 44 48 0 0 0
SMALL
GASTEIGER

@<TRIPOS>ATOM
      1 C         143.6028  141.4948  161.7726 C.ar    1  UNL1        0.1726
      2 C         142.5646  140.4701  161.4232 C.ar    1  UNL1        0.0443
      3 C         141.3113  140.8848  160.7108 C.ar    1  UNL1        0.0527
      4 C         140.2732  139.8600  160.3614 C.ar    1  UNL1        0.1368
      5 N         139.0200  140.2747  159.6490 N.ar    1  UNL1       -0.2089
      6 C         138.8050  141.7141  159.2860 C.ar    1  UNL1        0.2000
      7 N         139.8431  142.7388  159.6354 N.ar    1  UNL1       -0.2238
      8 C         141.0963  142.3242  160.3478 C.ar    1  UNL1        0.0890
      9 C         142.1345  143.3489  160.6972 C.ar    1  UNL1        0.0593
     10 C         143.3877  142.9343  161.4096 C.ar    1  UNL1        0.1737
     11 C         144.9874  141.3029  163.9625 C.3     1  UNL1        0.2526
     12 O         144.8559  141.0802  162.4850 O.3     1  UNL1       -0.4684
     13 N         140.4883  138.4205  160.7244 N.pl3   1  UNL1       -0.2781
     14 H         140.7328  137.7686  160.0284 H       1  UNL1        0.1555
     15 C         140.3307  137.9744  162.1479 C.ar    1  UNL1        0.1643
     16 N         141.3245  137.1737  162.9360 N.ar    1  UNL1       -0.2227
     17 C         140.7598  136.9552  164.3084 C.ar    1  UNL1        0.1035
     18 C         139.4169  137.6208  164.3683 C.ar    1  UNL1        0.0382
     19 S         139.1517  138.2507  163.0331 S.2     1  UNL1       -0.0552
     20 C         138.5001  137.6512  165.5552 C.3     1  UNL1        0.1198
     21 C         138.7230  138.6523  166.6496 C.2     1  UNL1        0.2311
     22 O         137.7163  138.7945  167.7525 O.2     1  UNL1       -0.2744
     23 N         139.9527  139.5113  166.6413 N.am    1  UNL1       -0.2836
     24 H         140.6135  139.4179  165.9175 H       1  UNL1        0.1549
     25 C         140.1757  140.5124  167.7358 C.ar    1  UNL1        0.0526
     26 C         140.2780  141.9724  167.4074 C.ar    1  UNL1        0.0148
     27 C         140.5009  142.9736  168.5019 C.ar    1  UNL1        0.0036
     28 C         140.6216  142.5148  169.9249 C.ar    1  UNL1        0.0297
     29 C         140.5194  141.0547  170.2534 C.ar    1  UNL1        0.1414
     30 F         140.6401  140.5958  171.6763 F       1  UNL1       -0.2041
     31 C         140.2964  140.0535  169.1589 C.ar    1  UNL1        0.0443
     32 O         144.4258  143.9591  161.7590 O.3     1  UNL1       -0.4723
     33 C         144.1701  144.9385  162.8658 C.3     1  UNL1        0.2070
     34 C         143.1750  144.6133  163.9401 C.3     1  UNL1        0.0646
     35 C         141.7915  145.1896  163.8802 C.3     1  UNL1        0.0759
     36 N         140.6103  144.2859  163.6849 N.3     1  UNL1       -0.2726
     37 C         140.7254  142.8232  163.9973 C.3     1  UNL1        0.0722
     38 C         139.5443  141.9194  163.8021 C.3     1  UNL1        0.0199
     39 C         138.2481  142.4783  163.2945 C.3     1  UNL1        0.0321
     40 C         138.1330  143.9409  162.9822 C.3     1  UNL1        0.0199
     41 C         139.3142  144.8447  163.1774 C.3     1  UNL1        0.0722
     42 C         137.0669  141.5746  163.0993 C.3     1  UNL1        0.1372
     43 O         137.0173  140.6495  161.9195 O.3     1  UNL1       -0.3820
     44 H         136.9602  141.1699  161.1028 H       1  UNL1        0.2104
@<TRIPOS>BOND
     1    11    12    1
     2    12     1    1
     3     1     2   ar
     4     2     3   ar
     5     3     4   ar
     6     4    13    1
     7    13    15    1
     8    15    16   ar
     9    16    17   ar
    10    17    18   ar
    11    18    20    1
    12    20    21    1
    13    21    22    2
    14    21    23   am
    15    23    25    1
    16    25    26   ar
    17    26    27   ar
    18    27    28   ar
    19    28    29   ar
    20    29    30    1
    21    29    31   ar
    22    18    19   ar
    23     4     5   ar
    24     5     6   ar
    25     6     7   ar
    26     7     8   ar
    27     8     9   ar
    28     9    10   ar
    29    10    32    1
    30    32    33    1
    31    33    34    1
    32    34    35    1
    33    35    36    1
    34    36    37    1
    35    37    38    1
    36    38    39    1
    37    39    42    1
    38    42    43    1
    39    39    40    1
    40    40    41    1
    41    10     1   ar
    42    41    36    1
    43     8     3   ar
    44    19    15   ar
    45    31    25   ar
    46    13    14    1
    47    23    24    1
    48    43    44    1
@<TRIPOS>MOLECULE
*****
 44 48 0 0 0
SMALL
GASTEIGER

@<TRIPOS>ATOM
      1 C         142.1694  143.6723  161.1633 C.ar    1  UNL1        0.1726
      2 C         142.6709  142.2627  161.0561 C.ar    1  UNL1        0.0443
      3 C         141.8099  141.2059  160.4300 C.ar    1  UNL1        0.0527
      4 C         142.3114  139.7963  160.3228 C.ar    1  UNL1        0.1368
      5 N         141.4504  138.7396  159.6967 N.ar    1  UNL1       -0.2089
      6 C         140.0880  139.0924  159.1779 C.ar    1  UNL1        0.2000
      7 N         139.5865  140.5020  159.2851 N.ar    1  UNL1       -0.2238
      8 C         140.4475  141.5588  159.9111 C.ar    1  UNL1        0.0890
      9 C         139.9460  142.9684  160.0184 C.ar    1  UNL1        0.0593
     10 C         140.8069  144.0252  160.6444 C.ar    1  UNL1        0.1737
     11 C         143.1016  144.8509  163.2827 C.3     1  UNL1        0.2526
     12 O         143.0304  144.7291  161.7893 O.3     1  UNL1       -0.4684
     13 N         143.6739  139.4435  160.8417 N.pl3   1  UNL1       -0.2781
     14 H         144.3966  139.2166  160.2128 H       1  UNL1        0.1555
     15 C         143.9352  139.4364  162.3187 C.ar    1  UNL1        0.1643
     16 N         144.8835  140.3392  163.0507 N.ar    1  UNL1       -0.2227
     17 C         144.8285  139.9860  164.5075 C.ar    1  UNL1        0.1035
     18 C         143.8463  138.8649  164.6759 C.ar    1  UNL1        0.0382
     19 S         143.2942  138.5252  163.3231 S.2     1  UNL1       -0.0552
     20 C         143.4803  138.2001  165.9698 C.3     1  UNL1        0.1198
     21 C         142.8484  138.9989  167.0709 C.2     1  UNL1        0.2311
     22 O         143.2832  138.7928  168.4916 O.2     1  UNL1       -0.2744
     23 N         141.7817  140.0039  166.7513 N.am    1  UNL1       -0.2836
     24 H         141.4963  140.1392  165.8188 H       1  UNL1        0.1549
     25 C         141.1498  140.8028  167.8525 C.ar    1  UNL1        0.0526
     26 C         141.7429  142.1189  168.2597 C.ar    1  UNL1        0.0148
     27 C         141.1110  142.9178  169.3609 C.ar    1  UNL1        0.0036
     28 C         139.8859  142.4005  170.0548 C.ar    1  UNL1        0.0297
     29 C         139.2926  141.0842  169.6475 C.ar    1  UNL1        0.1414
     30 F         138.0676  140.5669  170.3413 F       1  UNL1       -0.2041
     31 C         139.9246  140.2854  168.5464 C.ar    1  UNL1        0.0443
     32 O         140.3054  145.4348  160.7516 O.3     1  UNL1       -0.4723
     33 C         139.7434  145.9342  162.0495 C.3     1  UNL1        0.2070
     34 C         138.6736  145.1533  162.7536 C.3     1  UNL1        0.0646
     35 C         139.0471  144.1367  163.7914 C.3     1  UNL1        0.0759
     36 N         138.9669  142.6736  163.4710 N.3     1  UNL1       -0.2726
     37 C         137.7346  142.1138  162.8243 C.3     1  UNL1        0.0722
     38 C         137.6545  140.6506  162.5040 C.3     1  UNL1        0.0199
     39 C         138.8067  139.7472  162.8302 C.3     1  UNL1        0.0321
     40 C         140.0389  140.3070  163.4768 C.3     1  UNL1        0.0199
     41 C         140.1191  141.7702  163.7972 C.3     1  UNL1        0.0722
     42 C         138.7266  138.2840  162.5098 C.3     1  UNL1        0.1372
     43 O         139.9817  137.5005  162.2628 O.3     1  UNL1       -0.3820
     44 H         140.4087  137.8208  161.4529 H       1  UNL1        0.2104
@<TRIPOS>BOND
     1    11    12    1
     2    12     1    1
     3     1     2   ar
     4     2     3   ar
     5     3     4   ar
     6     4    13    1
     7    13    15    1
     8    15    16   ar
     9    16    17   ar
    10    17    18   ar
    11    18    20    1
    12    20    21    1
    13    21    22    2
    14    21    23   am
    15    23    25    1
    16    25    26   ar
    17    26    27   ar
    18    27    28   ar
    19    28    29   ar
    20    29    30    1
    21    29    31   ar
    22    18    19   ar
    23     4     5   ar
    24     5     6   ar
    25     6     7   ar
    26     7     8   ar
    27     8     9   ar
    28     9    10   ar
    29    10    32    1
    30    32    33    1
    31    33    34    1
    32    34    35    1
    33    35    36    1
    34    36    37    1
    35    37    38    1
    36    38    39    1
    37    39    42    1
    38    42    43    1
    39    39    40    1
    40    40    41    1
    41    10     1   ar
    42    41    36    1
    43     8     3   ar
    44    19    15   ar
    45    31    25   ar
    46    13    14    1
    47    23    24    1
    48    43    44    1
@<TRIPOS>MOLECULE
*****
 44 48 0 0 0
SMALL
GASTEIGER

@<TRIPOS>ATOM
      1 C         142.1553  143.5520  161.1568 C.ar    1  UNL1        0.1726
      2 C         142.5201  142.0986  161.0898 C.ar    1  UNL1        0.0443
      3 C         141.5094  141.0922  160.6254 C.ar    1  UNL1        0.0527
      4 C         141.8742  139.6388  160.5585 C.ar    1  UNL1        0.1368
      5 N         140.8635  138.6324  160.0941 N.ar    1  UNL1       -0.2089
      6 C         139.4880  139.0795  159.6965 C.ar    1  UNL1        0.2000
      7 N         139.1232  140.5329  159.7635 N.ar    1  UNL1       -0.2238
      8 C         140.1339  141.5393  160.2279 C.ar    1  UNL1        0.0890
      9 C         139.7690  142.9927  160.2948 C.ar    1  UNL1        0.0593
     10 C         140.7797  143.9990  160.7592 C.ar    1  UNL1        0.1737
     11 C         144.0140  144.2694  162.8243 C.3     1  UNL1        0.2526
     12 O         143.1660  144.5583  161.6212 O.3     1  UNL1       -0.4684
     13 N         143.2498  139.1917  160.9560 N.pl3   1  UNL1       -0.2781
     14 H         143.8810  138.8729  160.2710 H       1  UNL1        0.1555
     15 C         143.6637  139.2305  162.3973 C.ar    1  UNL1        0.1643
     16 N         144.8249  139.9947  162.9609 N.ar    1  UNL1       -0.2227
     17 C         144.8680  139.7484  164.4399 C.ar    1  UNL1        0.1035
     18 C         143.7334  138.8319  164.7904 C.ar    1  UNL1        0.0382
     19 S         142.9892  138.5118  163.5279 S.2     1  UNL1       -0.0552
     20 C         143.4013  138.3245  166.1623 C.3     1  UNL1        0.1198
     21 C         142.9643  139.2823  167.2307 C.2     1  UNL1        0.2311
     22 O         142.9651  138.8538  168.6682 O.2     1  UNL1       -0.2744
     23 N         142.5263  140.6686  166.8617 N.am    1  UNL1       -0.2836
     24 H         142.5257  140.9499  165.9182 H       1  UNL1        0.1549
     25 C         142.0892  141.6265  167.9301 C.ar    1  UNL1        0.0526
     26 C         140.6602  142.0780  167.9936 C.ar    1  UNL1        0.0148
     27 C         140.2231  143.0358  169.0621 C.ar    1  UNL1        0.0036
     28 C         141.2150  143.5422  170.0669 C.ar    1  UNL1        0.0297
     29 C         142.6441  143.0906  170.0034 C.ar    1  UNL1        0.1414
     30 F         143.6360  143.5969  171.0082 F       1  UNL1       -0.2041
     31 C         143.0812  142.1328  168.9350 C.ar    1  UNL1        0.0443
     32 O         140.4149  145.4524  160.8261 O.3     1  UNL1       -0.4723
     33 C         139.9105  146.0407  162.1104 C.3     1  UNL1        0.2070
     34 C         138.8002  145.3655  162.8597 C.3     1  UNL1        0.0646
     35 C         139.1158  144.4626  164.0151 C.3     1  UNL1        0.0759
     36 N         139.0479  142.9739  163.8439 N.3     1  UNL1       -0.2726
     37 C         140.2340  142.1241  164.1920 C.3     1  UNL1        0.0722
     38 C         140.1661  140.6355  164.0209 C.3     1  UNL1        0.0199
     39 C         138.9122  139.9966  163.5016 C.3     1  UNL1        0.0321
     40 C         137.7262  140.8464  163.1536 C.3     1  UNL1        0.0199
     41 C         137.7940  142.3351  163.3247 C.3     1  UNL1        0.0722
     42 C         138.8443  138.5080  163.3305 C.3     1  UNL1        0.1372
     43 O         138.7633  137.6175  164.5349 O.3     1  UNL1       -0.3820
     44 H         139.5869  137.6851  165.0429 H       1  UNL1        0.2104
@<TRIPOS>BOND
     1    11    12    1
     2    12     1    1
     3     1     2   ar
     4     2     3   ar
     5     3     4   ar
     6     4    13    1
     7    13    15    1
     8    15    16   ar
     9    16    17   ar
    10    17    18   ar
    11    18    20    1
    12    20    21    1
    13    21    22    2
    14    21    23   am
    15    23    25    1
    16    25    26   ar
    17    26    27   ar
    18    27    28   ar
    19    28    29   ar
    20    29    30    1
    21    29    31   ar
    22    18    19   ar
    23     4     5   ar
    24     5     6   ar
    25     6     7   ar
    26     7     8   ar
    27     8     9   ar
    28     9    10   ar
    29    10    32    1
    30    32    33    1
    31    33    34    1
    32    34    35    1
    33    35    36    1
    34    36    37    1
    35    37    38    1
    36    38    39    1
    37    39    42    1
    38    42    43    1
    39    39    40    1
    40    40    41    1
    41    10     1   ar
    42    41    36    1
    43     8     3   ar
    44    19    15   ar
    45    31    25   ar
    46    13    14    1
    47    23    24    1
    48    43    44    1
@<TRIPOS>MOLECULE
*****
 44 48 0 0 0
SMALL
GASTEIGER

@<TRIPOS>ATOM
      1 C         139.3460  142.9280  160.7733 C.ar    1  UNL1        0.1726
      2 C         139.9324  141.5496  160.6964 C.ar    1  UNL1        0.0443
      3 C         141.2905  141.3448  160.0930 C.ar    1  UNL1        0.0527
      4 C         141.8769  139.9663  160.0161 C.ar    1  UNL1        0.1368
      5 N         143.2348  139.7616  159.4128 N.ar    1  UNL1       -0.2089
      6 C         144.0063  140.9353  158.8864 C.ar    1  UNL1        0.2000
      7 N         143.4199  142.3137  158.9633 N.ar    1  UNL1       -0.2238
      8 C         142.0620  142.5185  159.5666 C.ar    1  UNL1        0.0890
      9 C         141.4756  143.8970  159.6435 C.ar    1  UNL1        0.0593
     10 C         140.1176  144.1018  160.2468 C.ar    1  UNL1        0.1737
     11 C         137.7932  142.9766  162.8557 C.3     1  UNL1        0.2526
     12 O         137.9881  143.1328  161.3766 O.3     1  UNL1       -0.4684
     13 N         141.1053  138.7926  160.5425 N.pl3   1  UNL1       -0.2781
     14 H         140.4673  138.3213  159.9594 H       1  UNL1        0.1555
     15 C         141.3058  138.3370  161.9575 C.ar    1  UNL1        0.1643
     16 N         140.4695  137.3266  162.6853 N.ar    1  UNL1       -0.2227
     17 C         141.0247  137.1768  164.0708 C.ar    1  UNL1        0.1035
     18 C         142.2041  138.0947  164.1992 C.ar    1  UNL1        0.0382
     19 S         142.3778  138.8117  162.8932 S.2     1  UNL1       -0.0552
     20 C         143.0595  138.2656  165.4194 C.3     1  UNL1        0.1198
     21 C         142.5184  138.9833  166.6202 C.2     1  UNL1        0.2311
     22 O         143.2208  138.8709  167.9408 O.2     1  UNL1       -0.2744
     23 N         141.2749  139.8135  166.5004 N.am    1  UNL1       -0.2836
     24 H         140.8139  139.8873  165.6337 H       1  UNL1        0.1549
     25 C         140.7337  140.5313  167.7013 C.ar    1  UNL1        0.0526
     26 C         141.3377  141.8354  168.1308 C.ar    1  UNL1        0.0148
     27 C         140.7965  142.5532  169.3316 C.ar    1  UNL1        0.0036
     28 C         139.6514  141.9669  170.1030 C.ar    1  UNL1        0.0297
     29 C         139.0474  140.6627  169.6735 C.ar    1  UNL1        0.1414
     30 F         137.9024  140.0763  170.4447 F       1  UNL1       -0.2041
     31 C         139.5886  139.9449  168.4726 C.ar    1  UNL1        0.0443
     32 O         139.5312  145.4803  160.3238 O.3     1  UNL1       -0.4723
     33 C         139.4923  146.2066  161.6355 C.3     1  UNL1        0.2070
     34 C         140.6470  146.0992  162.5869 C.3     1  UNL1        0.0646
     35 C         140.7220  144.9508  163.5488 C.3     1  UNL1        0.0759
     36 N         141.9616  144.1089  163.6167 N.3     1  UNL1       -0.2726
     37 C         142.0564  142.9926  164.6142 C.3     1  UNL1        0.0722
     38 C         143.2960  142.1507  164.6820 C.3     1  UNL1        0.0199
     39 C         144.4408  142.4251  163.7523 C.3     1  UNL1        0.0321
     40 C         144.3459  143.5413  162.7548 C.3     1  UNL1        0.0199
     41 C         143.1063  144.3832  162.6870 C.3     1  UNL1        0.0722
     42 C         145.6804  141.5832  163.8201 C.3     1  UNL1        0.1372
     43 O         145.5766  140.0885  163.7488 O.3     1  UNL1       -0.3820
     44 H         145.1132  139.7586  164.5345 H       1  UNL1        0.2104
@<TRIPOS>BOND
     1    11    12    1
     2    12     1    1
     3     1     2   ar
     4     2     3   ar
     5     3     4   ar
     6     4    13    1
     7    13    15    1
     8    15    16   ar
     9    16    17   ar
    10    17    18   ar
    11    18    20    1
    12    20    21    1
    13    21    22    2
    14    21    23   am
    15    23    25    1
    16    25    26   ar
    17    26    27   ar
    18    27    28   ar
    19    28    29   ar
    20    29    30    1
    21    29    31   ar
    22    18    19   ar
    23     4     5   ar
    24     5     6   ar
    25     6     7   ar
    26     7     8   ar
    27     8     9   ar
    28     9    10   ar
    29    10    32    1
    30    32    33    1
    31    33    34    1
    32    34    35    1
    33    35    36    1
    34    36    37    1
    35    37    38    1
    36    38    39    1
    37    39    42    1
    38    42    43    1
    39    39    40    1
    40    40    41    1
    41    10     1   ar
    42    41    36    1
    43     8     3   ar
    44    19    15   ar
    45    31    25   ar
    46    13    14    1
    47    23    24    1
    48    43    44    1
@<TRIPOS>MOLECULE
*****
 44 48 0 0 0
SMALL
GASTEIGER

@<TRIPOS>ATOM
      1 C         143.2399  139.4946  163.1594 C.ar    1  UNL1        0.1726
      2 C         142.4080  140.2060  164.1850 C.ar    1  UNL1        0.0443
      3 C         141.1350  139.5856  164.6797 C.ar    1  UNL1        0.0527
      4 C         140.3031  140.2970  165.7053 C.ar    1  UNL1        0.1368
      5 N         139.0302  139.6767  166.1999 N.ar    1  UNL1       -0.2089
      6 C         138.5891  138.3450  165.6690 C.ar    1  UNL1        0.2000
      7 N         139.4209  137.6336  164.6433 N.ar    1  UNL1       -0.2238
      8 C         140.6939  138.2539  164.1487 C.ar    1  UNL1        0.0890
      9 C         141.5258  137.5425  163.1231 C.ar    1  UNL1        0.0593
     10 C         142.7988  138.1628  162.6284 C.ar    1  UNL1        0.1737
     11 C         145.3153  141.0029  163.5690 C.3     1  UNL1        0.2526
     12 O         144.5129  140.1149  162.6648 O.3     1  UNL1       -0.4684
     13 N         140.7443  141.6288  166.2363 N.pl3   1  UNL1       -0.2781
     14 H         141.2740  141.6775  167.0647 H       1  UNL1        0.1555
     15 C         140.3784  142.8863  165.5050 C.ar    1  UNL1        0.1643
     16 N         139.1200  143.6809  165.6926 N.ar    1  UNL1       -0.2227
     17 C         139.1705  144.8557  164.7613 C.ar    1  UNL1        0.1035
     18 C         140.4600  144.7872  163.9981 C.ar    1  UNL1        0.0382
     19 S         141.2065  143.5700  164.4578 S.2     1  UNL1       -0.0552
     20 C         140.9220  145.7642  162.9580 C.3     1  UNL1        0.1198
     21 C         140.3996  145.6691  161.5552 C.2     1  UNL1        0.2311
     22 O         139.1616  146.4200  161.1634 O.2     1  UNL1       -0.2744
     23 N         141.1152  144.8233  160.5440 N.am    1  UNL1       -0.2836
     24 H         141.9278  144.3305  160.8012 H       1  UNL1        0.1549
     25 C         140.5928  144.7282  159.1412 C.ar    1  UNL1        0.0526
     26 C         139.6394  143.6318  158.7686 C.ar    1  UNL1        0.0148
     27 C         139.1170  143.5367  157.3657 C.ar    1  UNL1        0.0036
     28 C         139.5480  144.5381  156.3354 C.ar    1  UNL1        0.0297
     29 C         140.5015  145.6345  156.7079 C.ar    1  UNL1        0.1414
     30 F         140.9326  146.6358  155.6777 F       1  UNL1       -0.2041
     31 C         141.0239  145.7296  158.1108 C.ar    1  UNL1        0.0443
     32 O         143.6306  137.4514  161.6028 O.3     1  UNL1       -0.4723
     33 C         143.2552  137.5222  160.1523 C.3     1  UNL1        0.2070
     34 C         142.4314  138.6689  159.6459 C.3     1  UNL1        0.0646
     35 C         140.9431  138.5269  159.5239 C.3     1  UNL1        0.0759
     36 N         140.0381  139.3222  160.4174 N.3     1  UNL1       -0.2726
     37 C         138.7116  138.7591  160.8341 C.3     1  UNL1        0.0722
     38 C         137.8065  139.5544  161.7275 C.3     1  UNL1        0.0199
     39 C         138.2279  140.9128  162.2043 C.3     1  UNL1        0.0321
     40 C         139.5543  141.4758  161.7877 C.3     1  UNL1        0.0199
     41 C         140.4594  140.6805  160.8942 C.3     1  UNL1        0.0722
     42 C         137.3228  141.7081  163.0978 C.3     1  UNL1        0.1372
     43 O         137.3530  141.4900  164.5816 O.3     1  UNL1       -0.3820
     44 H         137.0356  140.5959  164.7835 H       1  UNL1        0.2104
@<TRIPOS>BOND
     1    11    12    1
     2    12     1    1
     3     1     2   ar
     4     2     3   ar
     5     3     4   ar
     6     4    13    1
     7    13    15    1
     8    15    16   ar
     9    16    17   ar
    10    17    18   ar
    11    18    20    1
    12    20    21    1
    13    21    22    2
    14    21    23   am
    15    23    25    1
    16    25    26   ar
    17    26    27   ar
    18    27    28   ar
    19    28    29   ar
    20    29    30    1
    21    29    31   ar
    22    18    19   ar
    23     4     5   ar
    24     5     6   ar
    25     6     7   ar
    26     7     8   ar
    27     8     9   ar
    28     9    10   ar
    29    10    32    1
    30    32    33    1
    31    33    34    1
    32    34    35    1
    33    35    36    1
    34    36    37    1
    35    37    38    1
    36    38    39    1
    37    39    42    1
    38    42    43    1
    39    39    40    1
    40    40    41    1
    41    10     1   ar
    42    41    36    1
    43     8     3   ar
    44    19    15   ar
    45    31    25   ar
    46    13    14    1
    47    23    24    1
    48    43    44    1
@<TRIPOS>MOLECULE
*****
 44 48 0 0 0
SMALL
GASTEIGER

@<TRIPOS>ATOM
      1 C         141.3833  141.5459  159.4471 C.ar    1  UNL1        0.1726
      2 C         140.1385  141.4396  160.2773 C.ar    1  UNL1        0.0443
      3 C         139.5962  142.6521  160.9744 C.ar    1  UNL1        0.0527
      4 C         138.3514  142.5458  161.8046 C.ar    1  UNL1        0.1368
      5 N         137.8091  143.7582  162.5017 N.ar    1  UNL1       -0.2089
      6 C         138.5114  145.0768  162.3685 C.ar    1  UNL1        0.2000
      7 N         139.7562  145.1831  161.5383 N.ar    1  UNL1       -0.2238
      8 C         140.2986  143.9707  160.8412 C.ar    1  UNL1        0.0890
      9 C         141.5433  144.0770  160.0110 C.ar    1  UNL1        0.0593
     10 C         142.0857  142.8646  159.3139 C.ar    1  UNL1        0.1737
     11 C         142.7422  139.3325  159.5124 C.3     1  UNL1        0.2526
     12 O         141.9257  140.3335  158.7500 O.3     1  UNL1       -0.4684
     13 N         137.6490  141.2271  161.9378 N.pl3   1  UNL1       -0.2781
     14 H         136.9037  141.0032  161.3348 H       1  UNL1        0.1555
     15 C         138.0823  140.2494  162.9898 C.ar    1  UNL1        0.1643
     16 N         138.9085  139.0183  162.7626 N.ar    1  UNL1       -0.2227
     17 C         139.1023  138.3393  164.0860 C.ar    1  UNL1        0.1035
     18 C         138.3958  139.1508  165.1311 C.ar    1  UNL1        0.0382
     19 S         137.7654  140.3313  164.4536 S.2     1  UNL1       -0.0552
     20 C         138.3310  138.8369  166.5965 C.3     1  UNL1        0.1198
     21 C         139.1120  139.6624  167.5755 C.2     1  UNL1        0.2311
     22 O         138.7656  139.6225  169.0344 O.2     1  UNL1       -0.2744
     23 N         140.2393  140.5277  167.0957 N.am    1  UNL1       -0.2836
     24 H         140.4666  140.5539  166.1382 H       1  UNL1        0.1549
     25 C         141.0203  141.3532  168.0748 C.ar    1  UNL1        0.0526
     26 C         142.3998  140.9278  168.4820 C.ar    1  UNL1        0.0148
     27 C         143.1809  141.7533  169.4611 C.ar    1  UNL1        0.0036
     28 C         142.5824  143.0042  170.0330 C.ar    1  UNL1        0.0297
     29 C         141.2027  143.4297  169.6257 C.ar    1  UNL1        0.1414
     30 F         140.6042  144.6805  170.1975 F       1  UNL1       -0.2041
     31 C         140.4217  142.6042  168.6466 C.ar    1  UNL1        0.0443
     32 O         143.3304  142.9709  158.4837 O.3     1  UNL1       -0.4723
     33 C         144.6185  142.3884  158.9852 C.3     1  UNL1        0.2070
     34 C         145.1267  142.7545  160.3482 C.3     1  UNL1        0.0646
     35 C         144.7420  141.9277  161.5391 C.3     1  UNL1        0.0759
     36 N         143.6624  142.4036  162.4654 N.3     1  UNL1       -0.2726
     37 C         142.5974  141.4534  162.9268 C.3     1  UNL1        0.0722
     38 C         141.5178  141.9293  163.8531 C.3     1  UNL1        0.0199
     39 C         141.5033  143.3554  164.3181 C.3     1  UNL1        0.0321
     40 C         142.5684  144.3056  163.8567 C.3     1  UNL1        0.0199
     41 C         143.6479  143.8296  162.9303 C.3     1  UNL1        0.0722
     42 C         140.4238  143.8314  165.2444 C.3     1  UNL1        0.1372
     43 O         139.1475  143.0534  165.3712 O.3     1  UNL1       -0.3820
     44 H         138.6651  143.0843  164.5302 H       1  UNL1        0.2104
@<TRIPOS>BOND
     1    11    12    1
     2    12     1    1
     3     1     2   ar
     4     2     3   ar
     5     3     4   ar
     6     4    13    1
     7    13    15    1
     8    15    16   ar
     9    16    17   ar
    10    17    18   ar
    11    18    20    1
    12    20    21    1
    13    21    22    2
    14    21    23   am
    15    23    25    1
    16    25    26   ar
    17    26    27   ar
    18    27    28   ar
    19    28    29   ar
    20    29    30    1
    21    29    31   ar
    22    18    19   ar
    23     4     5   ar
    24     5     6   ar
    25     6     7   ar
    26     7     8   ar
    27     8     9   ar
    28     9    10   ar
    29    10    32    1
    30    32    33    1
    31    33    34    1
    32    34    35    1
    33    35    36    1
    34    36    37    1
    35    37    38    1
    36    38    39    1
    37    39    42    1
    38    42    43    1
    39    39    40    1
    40    40    41    1
    41    10     1   ar
    42    41    36    1
    43     8     3   ar
    44    19    15   ar
    45    31    25   ar
    46    13    14    1
    47    23    24    1
    48    43    44    1
@<TRIPOS>MOLECULE
*****
 44 48 0 0 0
SMALL
GASTEIGER

@<TRIPOS>ATOM
      1 C         139.6068  141.6844  164.3810 C.ar    1  UNL1        0.1726
      2 C         140.3735  142.8753  163.8871 C.ar    1  UNL1        0.0443
      3 C         141.7409  143.1654  164.4314 C.ar    1  UNL1        0.0527
      4 C         142.5076  144.3563  163.9374 C.ar    1  UNL1        0.1368
      5 N         143.8749  144.6465  164.4817 N.ar    1  UNL1       -0.2089
      6 C         144.4755  143.7457  165.5199 C.ar    1  UNL1        0.2000
      7 N         143.7088  142.5548  166.0138 N.ar    1  UNL1       -0.2238
      8 C         142.3415  142.2647  165.4696 C.ar    1  UNL1        0.0890
      9 C         141.5748  141.0738  165.9635 C.ar    1  UNL1        0.0593
     10 C         140.2075  140.7836  165.4192 C.ar    1  UNL1        0.1737
     11 C         137.5271  142.4238  163.0106 C.3     1  UNL1        0.2526
     12 O         138.2395  141.3942  163.8367 O.3     1  UNL1       -0.4684
     13 N         141.9069  145.2571  162.8992 N.pl3   1  UNL1       -0.2781
     14 H         141.5658  146.1444  163.1552 H       1  UNL1        0.1555
     15 C         141.8259  144.8058  161.4710 C.ar    1  UNL1        0.1643
     16 N         142.8157  143.9257  160.7669 N.ar    1  UNL1       -0.2227
     17 C         142.3425  143.7314  159.3569 C.ar    1  UNL1        0.1035
     18 C         141.0602  144.4914  159.1894 C.ar    1  UNL1        0.0382
     19 S         140.7409  145.1554  160.4960 S.2     1  UNL1       -0.0552
     20 C         140.2409  144.5731  157.9356 C.3     1  UNL1        0.1198
     21 C         140.5225  145.6443  156.9242 C.2     1  UNL1        0.2311
     22 O         141.8921  146.2494  156.8340 O.2     1  UNL1       -0.2744
     23 N         139.4346  146.1106  156.0028 N.am    1  UNL1       -0.2836
     24 H         138.5356  145.7135  156.0620 H       1  UNL1        0.1549
     25 C         139.7162  147.1819  154.9914 C.ar    1  UNL1        0.0526
     26 C         140.5634  146.8768  153.7918 C.ar    1  UNL1        0.0148
     27 C         140.8450  147.9481  152.7803 C.ar    1  UNL1        0.0036
     28 C         140.2794  149.3245  152.9684 C.ar    1  UNL1        0.0297
     29 C         139.4320  149.6297  154.1681 C.ar    1  UNL1        0.1414
     30 F         138.8664  151.0061  154.3562 F       1  UNL1       -0.2041
     31 C         139.1504  148.5584  155.1795 C.ar    1  UNL1        0.0443
     32 O         139.4408  139.5927  165.9132 O.3     1  UNL1       -0.4723
     33 C         139.3145  138.3718  165.0510 C.3     1  UNL1        0.2070
     34 C         140.5200  137.5248  164.7691 C.3     1  UNL1        0.0646
     35 C         141.2263  137.6405  163.4509 C.3     1  UNL1        0.0759
     36 N         142.2998  138.6712  163.2632 N.3     1  UNL1       -0.2726
     37 C         142.1704  139.7002  162.1794 C.3     1  UNL1        0.0722
     38 C         143.2439  140.7308  161.9916 C.3     1  UNL1        0.0199
     39 C         144.4469  140.7325  162.8877 C.3     1  UNL1        0.0321
     40 C         144.5763  139.7035  163.9714 C.3     1  UNL1        0.0199
     41 C         143.5028  138.6729  164.1591 C.3     1  UNL1        0.0722
     42 C         145.5205  141.7631  162.7000 C.3     1  UNL1        0.1372
     43 O         145.1800  143.1036  162.1190 O.3     1  UNL1       -0.3820
     44 H         144.8970  142.9942  161.1977 H       1  UNL1        0.2104
@<TRIPOS>BOND
     1    11    12    1
     2    12     1    1
     3     1     2   ar
     4     2     3   ar
     5     3     4   ar
     6     4    13    1
     7    13    15    1
     8    15    16   ar
     9    16    17   ar
    10    17    18   ar
    11    18    20    1
    12    20    21    1
    13    21    22    2
    14    21    23   am
    15    23    25    1
    16    25    26   ar
    17    26    27   ar
    18    27    28   ar
    19    28    29   ar
    20    29    30    1
    21    29    31   ar
    22    18    19   ar
    23     4     5   ar
    24     5     6   ar
    25     6     7   ar
    26     7     8   ar
    27     8     9   ar
    28     9    10   ar
    29    10    32    1
    30    32    33    1
    31    33    34    1
    32    34    35    1
    33    35    36    1
    34    36    37    1
    35    37    38    1
    36    38    39    1
    37    39    42    1
    38    42    43    1
    39    39    40    1
    40    40    41    1
    41    10     1   ar
    42    41    36    1
    43     8     3   ar
    44    19    15   ar
    45    31    25   ar
    46    13    14    1
    47    23    24    1
    48    43    44    1
