@<TRIPOS>MOLECULE
*****
 37 41 0 0 0
SMALL
GASTEIGER

@<TRIPOS>ATOM
      1 C         144.2110  141.6075  158.7177 C.3     1  UNL1        0.0294
      2 C         143.8049  142.4699  159.8760 C.3     1  UNL1        0.0730
      3 C         142.1683  139.9498  166.6625 C.ar    1  UNL1        0.0206
      4 C         143.2476  138.9460  166.3843 C.ar    1  UNL1        0.0013
      5 C         143.9802  138.9757  165.0757 C.ar    1  UNL1       -0.0045
      6 C         143.6335  140.0093  164.0453 C.ar    1  UNL1       -0.0247
      7 C         142.5543  141.0131  164.3236 C.ar    1  UNL1       -0.0246
      8 C         141.8216  140.9834  165.6321 C.ar    1  UNL1       -0.0029
      9 C         142.0555  142.1190  163.4413 C.3     1  UNL1        0.0433
     10 C         142.5130  142.4941  162.0628 C.3     1  UNL1        0.0768
     11 N         143.5820  141.8560  161.2264 N.3     1  UNL1       -0.2720
     12 C         144.4578  140.6852  161.5615 C.3     1  UNL1        0.0768
     13 C         144.4807  139.8634  162.8161 C.3     1  UNL1        0.0433
     14 C         138.3483  140.3216  170.2888 C.3     1  UNL1        0.0754
     15 C         139.6798  140.0909  169.6379 C.ar    1  UNL1        0.1548
     16 C         139.9880  140.2533  168.1789 C.ar    1  UNL1        0.0580
     17 C         141.4357  139.9201  167.9711 C.ar    1  UNL1        0.1227
     18 N         142.0222  139.5518  169.3017 N.ar    1  UNL1       -0.0774
     19 O         140.9370  139.6574  170.3318 O.2     1  UNL1       -0.3578
     20 C         143.2014  141.2271  157.6756 C.3     1  UNL1        0.0666
     21 S         142.6203  139.8443  157.6638 S.3     1  UNL1       -0.0756
     22 C         142.3904  139.1164  158.9550 C.ar    1  UNL1        0.1932
     23 N         143.1684  137.9337  159.4510 N.ar    1  UNL1       -0.1221
     24 N         142.6010  137.5296  160.7794 N.ar    1  UNL1       -0.1282
     25 C         141.4722  138.4625  161.1044 C.ar    1  UNL1        0.1668
     26 N         141.3420  139.4432  159.9768 N.ar    1  UNL1       -0.2884
     27 C         140.3396  140.5554  159.8869 C.3     1  UNL1        0.1340
     28 C         140.6227  138.4219  162.3400 C.ar    1  UNL1        0.0359
     29 C         139.3957  139.2795  162.4351 C.ar    1  UNL1        0.0030
     30 C         138.5462  139.2389  163.6707 C.ar    1  UNL1        0.0039
     31 C         138.9237  138.3408  164.8112 C.ar    1  UNL1        0.0714
     32 C         140.1507  137.4832  164.7161 C.ar    1  UNL1        0.0039
     33 C         141.0002  137.5238  163.4805 C.ar    1  UNL1        0.0030
     34 C         138.0742  138.3002  166.0468 C.3     1  UNL1        0.4186
     35 F         137.2248  138.2595  167.2824 F       1  UNL1       -0.1659
     36 F         138.3003  136.8211  166.1537 F       1  UNL1       -0.1659
     37 F         137.8482  139.7792  165.9400 F       1  UNL1       -0.1659
@<TRIPOS>BOND
     1    14    15    1
     2    15    16   ar
     3    16    17   ar
     4    17     3    1
     5     3     4   ar
     6     4     5   ar
     7     5     6   ar
     8     6     7   ar
     9     7     8   ar
    10     7     9    1
    11     9    10    1
    12    10    11    1
    13    11     2    1
    14     2     1    1
    15     1    20    1
    16    20    21    1
    17    21    22    1
    18    22    23   ar
    19    23    24   ar
    20    24    25   ar
    21    25    28    1
    22    28    29   ar
    23    29    30   ar
    24    30    31   ar
    25    31    34    1
    26    34    35    1
    27    34    36    1
    28    34    37    1
    29    31    32   ar
    30    32    33   ar
    31    25    26   ar
    32    26    27    1
    33    11    12    1
    34    12    13    1
    35    17    18   ar
    36    18    19   ar
    37    19    15   ar
    38     8     3   ar
    39    26    22   ar
    40    13     6    1
    41    33    28   ar
@<TRIPOS>MOLECULE
*****
 37 41 0 0 0
SMALL
GASTEIGER

@<TRIPOS>ATOM
      1 C         143.1688  142.8605  158.5731 C.3     1  UNL1        0.0294
      2 C         144.2010  142.7035  159.6501 C.3     1  UNL1        0.0730
      3 C         142.7314  139.6374  166.2476 C.ar    1  UNL1        0.0206
      4 C         142.3653  138.4310  165.4348 C.ar    1  UNL1        0.0013
      5 C         142.4730  138.4733  163.9392 C.ar    1  UNL1       -0.0045
      6 C         142.9468  139.7221  163.2565 C.ar    1  UNL1       -0.0247
      7 C         143.3129  140.9284  164.0692 C.ar    1  UNL1       -0.0246
      8 C         143.2052  140.8861  165.5647 C.ar    1  UNL1       -0.0029
      9 C         143.8036  142.2634  163.5927 C.3     1  UNL1        0.0433
     10 C         144.0495  142.7216  162.1856 C.3     1  UNL1        0.0768
     11 N         143.8653  141.9581  160.9078 N.3     1  UNL1       -0.2720
     12 C         143.3898  140.5477  160.7212 C.3     1  UNL1        0.0768
     13 C         142.9810  139.5526  161.7665 C.3     1  UNL1        0.0433
     14 C         141.5564  140.9090  171.2358 C.3     1  UNL1        0.0754
     15 C         142.0837  140.1795  170.0360 C.ar    1  UNL1        0.1548
     16 C         141.9547  140.6215  168.6083 C.ar    1  UNL1        0.0580
     17 C         142.6237  139.5950  167.7431 C.ar    1  UNL1        0.1227
     18 N         143.1662  138.5186  168.6359 N.ar    1  UNL1       -0.0774
     19 O         142.8325  138.8799  170.0529 O.2     1  UNL1       -0.3578
     20 C         142.3679  144.1255  158.4804 C.3     1  UNL1        0.0666
     21 S         140.9834  144.1804  159.0547 S.3     1  UNL1       -0.0756
     22 C         140.7474  143.7846  160.4822 C.ar    1  UNL1        0.1932
     23 N         140.9983  144.6412  161.6877 N.ar    1  UNL1       -0.1221
     24 N         140.6250  143.8488  162.9053 N.ar    1  UNL1       -0.1282
     25 C         140.1434  142.5023  162.4524 C.ar    1  UNL1        0.1668
     26 N         140.2190  142.4626  160.9548 N.ar    1  UNL1       -0.2884
     27 C         139.8339  141.3044  160.0829 C.3     1  UNL1        0.1340
     28 C         139.6693  141.3907  163.3410 C.ar    1  UNL1        0.0359
     29 C         139.6037  141.5935  164.8257 C.ar    1  UNL1        0.0030
     30 C         139.1297  140.4819  165.7143 C.ar    1  UNL1        0.0039
     31 C         138.7212  139.1675  165.1182 C.ar    1  UNL1        0.0714
     32 C         138.7868  138.9647  163.6335 C.ar    1  UNL1        0.0039
     33 C         139.2608  140.0763  162.7449 C.ar    1  UNL1        0.0030
     34 C         138.2472  138.0559  166.0068 C.3     1  UNL1        0.4186
     35 F         137.7731  136.9443  166.8954 F       1  UNL1       -0.1659
     36 F         137.4217  139.0336  166.7896 F       1  UNL1       -0.1659
     37 F         139.0726  137.0782  165.2241 F       1  UNL1       -0.1659
@<TRIPOS>BOND
     1    14    15    1
     2    15    16   ar
     3    16    17   ar
     4    17     3    1
     5     3     4   ar
     6     4     5   ar
     7     5     6   ar
     8     6     7   ar
     9     7     8   ar
    10     7     9    1
    11     9    10    1
    12    10    11    1
    13    11     2    1
    14     2     1    1
    15     1    20    1
    16    20    21    1
    17    21    22    1
    18    22    23   ar
    19    23    24   ar
    20    24    25   ar
    21    25    28    1
    22    28    29   ar
    23    29    30   ar
    24    30    31   ar
    25    31    34    1
    26    34    35    1
    27    34    36    1
    28    34    37    1
    29    31    32   ar
    30    32    33   ar
    31    25    26   ar
    32    26    27    1
    33    11    12    1
    34    12    13    1
    35    17    18   ar
    36    18    19   ar
    37    19    15   ar
    38     8     3   ar
    39    26    22   ar
    40    13     6    1
    41    33    28   ar
@<TRIPOS>MOLECULE
*****
 37 41 0 0 0
SMALL
GASTEIGER

@<TRIPOS>ATOM
      1 C         138.1004  142.2517  157.7177 C.3     1  UNL1        0.0294
      2 C         138.2106  140.7807  157.9899 C.3     1  UNL1        0.0730
      3 C         138.7561  138.9438  165.1603 C.ar    1  UNL1        0.0206
      4 C         139.5605  137.7870  164.6458 C.ar    1  UNL1        0.0013
      5 C         139.7960  137.6334  163.1724 C.ar    1  UNL1       -0.0045
      6 C         139.2270  138.6368  162.2134 C.ar    1  UNL1       -0.0247
      7 C         138.4227  139.7936  162.7278 C.ar    1  UNL1       -0.0246
      8 C         138.1872  139.9472  164.2012 C.ar    1  UNL1       -0.0029
      9 C         137.7706  140.8985  161.9506 C.3     1  UNL1        0.0433
     10 C         137.7619  141.1194  160.4669 C.3     1  UNL1        0.0768
     11 N         138.4031  140.2900  159.3942 N.3     1  UNL1       -0.2720
     12 C         139.2114  139.0349  159.5400 C.3     1  UNL1        0.0768
     13 C         139.5781  138.2991  160.7947 C.3     1  UNL1        0.0433
     14 C         139.2810  140.4196  170.2028 C.3     1  UNL1        0.0754
     15 C         138.7619  139.7756  168.9515 C.ar    1  UNL1        0.1548
     16 C         139.3590  139.9031  167.5813 C.ar    1  UNL1        0.0580
     17 C         138.5207  139.0973  166.6337 C.ar    1  UNL1        0.1227
     18 N         137.4056  138.4719  167.4182 N.ar    1  UNL1       -0.0774
     19 O         137.5547  138.8912  168.8506 O.2     1  UNL1       -0.3578
     20 C         139.2710  142.9995  157.1516 C.3     1  UNL1        0.0666
     21 S         140.0707  143.9162  158.0290 S.3     1  UNL1       -0.0756
     22 C         140.2165  143.6165  159.4916 C.ar    1  UNL1        0.1932
     23 N         139.5673  144.3693  160.6148 N.ar    1  UNL1       -0.1221
     24 N         139.9865  143.7294  161.9051 N.ar    1  UNL1       -0.1282
     25 C         140.8948  142.5810  161.5792 C.ar    1  UNL1        0.1668
     26 N         141.0369  142.5112  160.0875 N.ar    1  UNL1       -0.2884
     27 C         141.8558  141.5116  159.3257 C.3     1  UNL1        0.1340
     28 C         141.5465  141.6635  162.5708 C.ar    1  UNL1        0.0359
     29 C         141.2409  141.8004  164.0329 C.ar    1  UNL1        0.0030
     30 C         141.8926  140.8829  165.0246 C.ar    1  UNL1        0.0039
     31 C         142.8501  139.8284  164.5542 C.ar    1  UNL1        0.0714
     32 C         143.1557  139.6915  163.0920 C.ar    1  UNL1        0.0039
     33 C         142.5040  140.6090  162.1004 C.ar    1  UNL1        0.0030
     34 C         143.5018  138.9109  165.5458 C.3     1  UNL1        0.4186
     35 F         144.1536  137.9934  166.5374 F       1  UNL1       -0.1659
     36 F         142.3013  139.0226  166.4382 F       1  UNL1       -0.1659
     37 F         144.7023  138.7992  164.6534 F       1  UNL1       -0.1659
@<TRIPOS>BOND
     1    14    15    1
     2    15    16   ar
     3    16    17   ar
     4    17     3    1
     5     3     4   ar
     6     4     5   ar
     7     5     6   ar
     8     6     7   ar
     9     7     8   ar
    10     7     9    1
    11     9    10    1
    12    10    11    1
    13    11     2    1
    14     2     1    1
    15     1    20    1
    16    20    21    1
    17    21    22    1
    18    22    23   ar
    19    23    24   ar
    20    24    25   ar
    21    25    28    1
    22    28    29   ar
    23    29    30   ar
    24    30    31   ar
    25    31    34    1
    26    34    35    1
    27    34    36    1
    28    34    37    1
    29    31    32   ar
    30    32    33   ar
    31    25    26   ar
    32    26    27    1
    33    11    12    1
    34    12    13    1
    35    17    18   ar
    36    18    19   ar
    37    19    15   ar
    38     8     3   ar
    39    26    22   ar
    40    13     6    1
    41    33    28   ar
@<TRIPOS>MOLECULE
*****
 37 41 0 0 0
SMALL
GASTEIGER

@<TRIPOS>ATOM
      1 C         144.4784  142.5070  158.8340 C.3     1  UNL1        0.0294
      2 C         145.0137  142.6001  160.2322 C.3     1  UNL1        0.0730
      3 C         140.8439  142.6872  166.3715 C.ar    1  UNL1        0.0206
      4 C         139.8724  143.4469  165.5177 C.ar    1  UNL1        0.0013
      5 C         140.2057  143.7445  164.0857 C.ar    1  UNL1       -0.0045
      6 C         141.5105  143.2825  163.5077 C.ar    1  UNL1       -0.0247
      7 C         142.4819  142.5229  164.3616 C.ar    1  UNL1       -0.0246
      8 C         142.1487  142.2252  165.7935 C.ar    1  UNL1       -0.0029
      9 C         143.8271  141.9751  163.9867 C.3     1  UNL1        0.0433
     10 C         144.5330  142.0517  162.6653 C.3     1  UNL1        0.0768
     11 N         144.0680  142.6949  161.3926 N.3     1  UNL1       -0.2720
     12 C         142.7823  143.4205  161.1267 C.3     1  UNL1        0.0768
     13 C         141.6441  143.6820  162.0681 C.3     1  UNL1        0.0433
     14 C         139.9148  140.0958  170.8773 C.3     1  UNL1        0.0754
     15 C         140.0835  141.1985  169.8745 C.ar    1  UNL1        0.1548
     16 C         140.4537  141.0283  168.4308 C.ar    1  UNL1        0.0580
     17 C         140.5106  142.3896  167.8034 C.ar    1  UNL1        0.1227
     18 N         140.1757  143.4010  168.8593 N.ar    1  UNL1       -0.0774
     19 O         139.9118  142.6649  170.1392 O.2     1  UNL1       -0.3578
     20 C         144.5095  141.1966  158.1046 C.3     1  UNL1        0.0666
     21 S         143.4323  140.1803  158.3424 S.3     1  UNL1       -0.0756
     22 C         143.2151  139.6255  159.7190 C.ar    1  UNL1        0.1932
     23 N         144.2322  138.8970  160.5465 N.ar    1  UNL1       -0.1221
     24 N         143.5886  138.5231  161.8488 N.ar    1  UNL1       -0.1282
     25 C         142.1736  139.0206  161.8261 C.ar    1  UNL1        0.1668
     26 N         141.9428  139.7020  160.5098 N.ar    1  UNL1       -0.2884
     27 C         140.6642  140.3465  160.0629 C.3     1  UNL1        0.1340
     28 C         141.1663  138.8643  162.9265 C.ar    1  UNL1        0.0359
     29 C         140.3132  140.0290  163.3335 C.ar    1  UNL1        0.0030
     30 C         139.3060  139.8727  164.4339 C.ar    1  UNL1        0.0039
     31 C         139.1517  138.5516  165.1274 C.ar    1  UNL1        0.0714
     32 C         140.0048  137.3869  164.7204 C.ar    1  UNL1        0.0039
     33 C         141.0121  137.5432  163.6200 C.ar    1  UNL1        0.0030
     34 C         138.1444  138.3953  166.2278 C.3     1  UNL1        0.4186
     35 F         137.1371  138.2389  167.3282 F       1  UNL1       -0.1659
     36 F         138.1712  136.9072  166.0408 F       1  UNL1       -0.1659
     37 F         138.1176  139.8833  166.4147 F       1  UNL1       -0.1659
@<TRIPOS>BOND
     1    14    15    1
     2    15    16   ar
     3    16    17   ar
     4    17     3    1
     5     3     4   ar
     6     4     5   ar
     7     5     6   ar
     8     6     7   ar
     9     7     8   ar
    10     7     9    1
    11     9    10    1
    12    10    11    1
    13    11     2    1
    14     2     1    1
    15     1    20    1
    16    20    21    1
    17    21    22    1
    18    22    23   ar
    19    23    24   ar
    20    24    25   ar
    21    25    28    1
    22    28    29   ar
    23    29    30   ar
    24    30    31   ar
    25    31    34    1
    26    34    35    1
    27    34    36    1
    28    34    37    1
    29    31    32   ar
    30    32    33   ar
    31    25    26   ar
    32    26    27    1
    33    11    12    1
    34    12    13    1
    35    17    18   ar
    36    18    19   ar
    37    19    15   ar
    38     8     3   ar
    39    26    22   ar
    40    13     6    1
    41    33    28   ar
@<TRIPOS>MOLECULE
*****
 37 41 0 0 0
SMALL
GASTEIGER

@<TRIPOS>ATOM
      1 C         140.7027  140.1404  157.1295 C.3     1  UNL1        0.0294
      2 C         139.9870  141.0011  158.1281 C.3     1  UNL1        0.0730
      3 C         139.0730  139.2865  165.2912 C.ar    1  UNL1        0.0206
      4 C         138.8898  137.8896  164.7765 C.ar    1  UNL1        0.0013
      5 C         138.9751  137.6156  163.3041 C.ar    1  UNL1       -0.0045
      6 C         139.2437  138.7387  162.3466 C.ar    1  UNL1       -0.0247
      7 C         139.4268  140.1355  162.8614 C.ar    1  UNL1       -0.0246
      8 C         139.3415  140.4095  164.3337 C.ar    1  UNL1       -0.0029
      9 C         139.7008  141.3898  162.0856 C.3     1  UNL1        0.0433
     10 C         139.8592  141.5568  160.6033 C.3     1  UNL1        0.0768
     11 N         139.7827  140.5109  159.5309 N.3     1  UNL1       -0.2720
     12 C         139.5291  139.0396  159.6757 C.3     1  UNL1        0.0768
     13 C         139.2891  138.2509  160.9289 C.3     1  UNL1        0.0433
     14 C         139.8990  141.3874  170.0646 C.3     1  UNL1        0.0754
     15 C         139.3673  140.5261  168.9576 C.ar    1  UNL1        0.1548
     16 C         139.7644  140.6020  167.5131 C.ar    1  UNL1        0.0580
     17 C         138.9877  139.5604  166.7635 C.ar    1  UNL1        0.1227
     18 N         138.1106  138.8407  167.7448 N.ar    1  UNL1       -0.0774
     19 O         138.3453  139.4375  169.1008 O.2     1  UNL1       -0.3578
     20 C         142.0777  140.5174  156.6633 C.3     1  UNL1        0.0666
     21 S         143.2843  139.9507  157.3508 S.3     1  UNL1       -0.0756
     22 C         143.1501  139.3264  158.7081 C.ar    1  UNL1        0.1932
     23 N         142.9460  137.8676  158.9913 N.ar    1  UNL1       -0.1221
     24 N         142.8661  137.6908  160.4787 N.ar    1  UNL1       -0.1282
     25 C         143.0208  139.0405  161.1148 C.ar    1  UNL1        0.1668
     26 N         143.1963  140.0513  160.0205 N.ar    1  UNL1       -0.2884
     27 C         143.3850  141.5278  160.2061 C.3     1  UNL1        0.1340
     28 C         143.0032  139.3287  162.5867 C.ar    1  UNL1        0.0359
     29 C         142.6711  138.2373  163.5608 C.ar    1  UNL1        0.0030
     30 C         142.6535  138.5255  165.0327 C.ar    1  UNL1        0.0039
     31 C         142.9678  139.9050  165.5307 C.ar    1  UNL1        0.0714
     32 C         143.2998  140.9964  164.5567 C.ar    1  UNL1        0.0039
     33 C         143.3175  140.7082  163.0847 C.ar    1  UNL1        0.0030
     34 C         142.9502  140.1933  167.0026 C.3     1  UNL1        0.4186
     35 F         142.9325  140.4815  168.4745 F       1  UNL1       -0.1659
     36 F         143.2554  141.6352  166.7239 F       1  UNL1       -0.1659
     37 F         142.6449  138.7513  167.2813 F       1  UNL1       -0.1659
@<TRIPOS>BOND
     1    14    15    1
     2    15    16   ar
     3    16    17   ar
     4    17     3    1
     5     3     4   ar
     6     4     5   ar
     7     5     6   ar
     8     6     7   ar
     9     7     8   ar
    10     7     9    1
    11     9    10    1
    12    10    11    1
    13    11     2    1
    14     2     1    1
    15     1    20    1
    16    20    21    1
    17    21    22    1
    18    22    23   ar
    19    23    24   ar
    20    24    25   ar
    21    25    28    1
    22    28    29   ar
    23    29    30   ar
    24    30    31   ar
    25    31    34    1
    26    34    35    1
    27    34    36    1
    28    34    37    1
    29    31    32   ar
    30    32    33   ar
    31    25    26   ar
    32    26    27    1
    33    11    12    1
    34    12    13    1
    35    17    18   ar
    36    18    19   ar
    37    19    15   ar
    38     8     3   ar
    39    26    22   ar
    40    13     6    1
    41    33    28   ar
@<TRIPOS>MOLECULE
*****
 37 41 0 0 0
SMALL
GASTEIGER

@<TRIPOS>ATOM
      1 C         143.7916  142.1609  158.1995 C.3     1  UNL1        0.0294
      2 C         144.5495  142.3479  159.4804 C.3     1  UNL1        0.0730
      3 C         141.7361  140.9573  166.2063 C.ar    1  UNL1        0.0206
      4 C         140.5651  141.7550  165.7141 C.ar    1  UNL1        0.0013
      5 C         140.5775  142.3284  164.3280 C.ar    1  UNL1       -0.0045
      6 C         141.7610  142.1040  163.4342 C.ar    1  UNL1       -0.0247
      7 C         142.9320  141.3062  163.9263 C.ar    1  UNL1       -0.0246
      8 C         142.9196  140.7329  165.3123 C.ar    1  UNL1       -0.0029
      9 C         144.2020  140.9663  163.2041 C.3     1  UNL1        0.0433
     10 C         144.6145  141.3403  161.8112 C.3     1  UNL1        0.0768
     11 N         143.8591  142.1464  160.7967 N.3     1  UNL1       -0.2720
     12 C         142.5044  142.7778  160.9244 C.3     1  UNL1        0.0768
     13 C         141.5707  142.7589  162.0982 C.3     1  UNL1        0.0433
     14 C         140.2375  139.7209  171.1160 C.3     1  UNL1        0.0754
     15 C         141.0348  139.8156  169.8491 C.ar    1  UNL1        0.1548
     16 C         140.6327  140.5550  168.6074 C.ar    1  UNL1        0.0580
     17 C         141.7236  140.3839  167.5923 C.ar    1  UNL1        0.1227
     18 N         142.8000  139.5388  168.2065 N.ar    1  UNL1       -0.0774
     19 O         142.3742  139.1876  169.6013 O.2     1  UNL1       -0.3578
     20 C         143.8753  140.8575  157.4618 C.3     1  UNL1        0.0666
     21 S         142.8857  139.7678  157.7501 S.3     1  UNL1       -0.0756
     22 C         142.7537  139.2233  159.1415 C.ar    1  UNL1        0.1932
     23 N         143.7914  138.4314  159.8805 N.ar    1  UNL1       -0.1221
     24 N         143.2400  138.0938  161.2340 N.ar    1  UNL1       -0.1282
     25 C         141.8615  138.6770  161.3315 C.ar    1  UNL1        0.1668
     26 N         141.5609  139.3751  160.0382 N.ar    1  UNL1       -0.2884
     27 C         140.2906  140.0980  159.7010 C.3     1  UNL1        0.1340
     28 C         140.9444  138.5793  162.5145 C.ar    1  UNL1        0.0359
     29 C         141.3913  137.8596  163.7524 C.ar    1  UNL1        0.0030
     30 C         140.4742  137.7619  164.9354 C.ar    1  UNL1        0.0039
     31 C         139.1104  138.3838  164.8806 C.ar    1  UNL1        0.0714
     32 C         138.6636  139.1035  163.6426 C.ar    1  UNL1        0.0039
     33 C         139.5806  139.2012  162.4596 C.ar    1  UNL1        0.0030
     34 C         138.1934  138.2861  166.0636 C.3     1  UNL1        0.4186
     35 F         137.2763  138.1884  167.2466 F       1  UNL1       -0.1659
     36 F         138.1603  136.7939  165.9147 F       1  UNL1       -0.1659
     37 F         138.2264  139.7783  166.2124 F       1  UNL1       -0.1659
@<TRIPOS>BOND
     1    14    15    1
     2    15    16   ar
     3    16    17   ar
     4    17     3    1
     5     3     4   ar
     6     4     5   ar
     7     5     6   ar
     8     6     7   ar
     9     7     8   ar
    10     7     9    1
    11     9    10    1
    12    10    11    1
    13    11     2    1
    14     2     1    1
    15     1    20    1
    16    20    21    1
    17    21    22    1
    18    22    23   ar
    19    23    24   ar
    20    24    25   ar
    21    25    28    1
    22    28    29   ar
    23    29    30   ar
    24    30    31   ar
    25    31    34    1
    26    34    35    1
    27    34    36    1
    28    34    37    1
    29    31    32   ar
    30    32    33   ar
    31    25    26   ar
    32    26    27    1
    33    11    12    1
    34    12    13    1
    35    17    18   ar
    36    18    19   ar
    37    19    15   ar
    38     8     3   ar
    39    26    22   ar
    40    13     6    1
    41    33    28   ar
@<TRIPOS>MOLECULE
*****
 37 41 0 0 0
SMALL
GASTEIGER

@<TRIPOS>ATOM
      1 C         140.3939  145.1349  159.0794 C.3     1  UNL1        0.0294
      2 C         140.2820  145.6415  160.4869 C.3     1  UNL1        0.0730
      3 C         139.6645  141.3057  166.4790 C.ar    1  UNL1        0.0206
      4 C         138.7537  140.4917  165.6085 C.ar    1  UNL1        0.0013
      5 C         138.4871  140.9191  164.1955 C.ar    1  UNL1       -0.0045
      6 C         139.1312  142.1605  163.6532 C.ar    1  UNL1       -0.0247
      7 C         140.0419  142.9744  164.5238 C.ar    1  UNL1       -0.0246
      8 C         140.3086  142.5471  165.9367 C.ar    1  UNL1       -0.0029
      9 C         140.7802  144.2352  164.1841 C.3     1  UNL1        0.0433
     10 C         140.7900  144.9934  162.8897 C.3     1  UNL1        0.0768
     11 N         140.0640  144.6780  161.6157 N.3     1  UNL1       -0.2720
     12 C         139.1489  143.5266  161.3211 C.3     1  UNL1        0.0768
     13 C         138.7337  142.4062  162.2279 C.3     1  UNL1        0.0433
     14 C         141.5616  141.1454  171.4040 C.3     1  UNL1        0.0754
     15 C         140.8031  140.8045  170.1557 C.ar    1  UNL1        0.1548
     16 C         140.8350  141.5722  168.8673 C.ar    1  UNL1        0.0580
     17 C         139.9311  140.8783  167.8919 C.ar    1  UNL1        0.1227
     18 N         139.3406  139.6818  168.5774 N.ar    1  UNL1       -0.0774
     19 O         139.8795  139.6363  169.9764 O.2     1  UNL1       -0.3578
     20 C         141.7342  145.0736  158.4086 C.3     1  UNL1        0.0666
     21 S         142.4370  143.7573  158.2561 S.3     1  UNL1       -0.0756
     22 C         142.1183  142.6247  159.1865 C.ar    1  UNL1        0.1932
     23 N         141.2414  141.4482  158.8753 N.ar    1  UNL1       -0.1221
     24 N         141.2016  140.5660  160.0878 N.ar    1  UNL1       -0.1282
     25 C         142.0539  141.1974  161.1484 C.ar    1  UNL1        0.1668
     26 N         142.6205  142.4698  160.5914 N.ar    1  UNL1       -0.2884
     27 C         143.5296  143.4202  161.3127 C.3     1  UNL1        0.1340
     28 C         142.2970  140.6522  162.5245 C.ar    1  UNL1        0.0359
     29 C         143.2234  141.3683  163.4621 C.ar    1  UNL1        0.0030
     30 C         143.4665  140.8231  164.8382 C.ar    1  UNL1        0.0039
     31 C         142.7833  139.5618  165.2768 C.ar    1  UNL1        0.0714
     32 C         141.8569  138.8457  164.3392 C.ar    1  UNL1        0.0039
     33 C         141.6138  139.3909  162.9631 C.ar    1  UNL1        0.0030
     34 C         143.0264  139.0166  166.6529 C.3     1  UNL1        0.4186
     35 F         143.2695  138.4714  168.0289 F       1  UNL1       -0.1659
     36 F         143.0546  140.4125  167.2010 F       1  UNL1       -0.1659
     37 F         142.9982  137.6206  166.1047 F       1  UNL1       -0.1659
@<TRIPOS>BOND
     1    14    15    1
     2    15    16   ar
     3    16    17   ar
     4    17     3    1
     5     3     4   ar
     6     4     5   ar
     7     5     6   ar
     8     6     7   ar
     9     7     8   ar
    10     7     9    1
    11     9    10    1
    12    10    11    1
    13    11     2    1
    14     2     1    1
    15     1    20    1
    16    20    21    1
    17    21    22    1
    18    22    23   ar
    19    23    24   ar
    20    24    25   ar
    21    25    28    1
    22    28    29   ar
    23    29    30   ar
    24    30    31   ar
    25    31    34    1
    26    34    35    1
    27    34    36    1
    28    34    37    1
    29    31    32   ar
    30    32    33   ar
    31    25    26   ar
    32    26    27    1
    33    11    12    1
    34    12    13    1
    35    17    18   ar
    36    18    19   ar
    37    19    15   ar
    38     8     3   ar
    39    26    22   ar
    40    13     6    1
    41    33    28   ar
@<TRIPOS>MOLECULE
*****
 37 41 0 0 0
SMALL
GASTEIGER

@<TRIPOS>ATOM
      1 C         142.2734  138.0262  158.5838 C.3     1  UNL1        0.0294
      2 C         142.6361  137.5418  159.9564 C.3     1  UNL1        0.0730
      3 C         139.5054  139.8778  166.2674 C.ar    1  UNL1        0.0206
      4 C         138.2902  140.0800  165.4115 C.ar    1  UNL1        0.0013
      5 C         138.3403  139.7523  163.9485 C.ar    1  UNL1       -0.0045
      6 C         139.6056  139.2225  163.3415 C.ar    1  UNL1       -0.0247
      7 C         140.8206  139.0203  164.1974 C.ar    1  UNL1       -0.0246
      8 C         140.7706  139.3480  165.6603 C.ar    1  UNL1       -0.0029
      9 C         142.1721  138.5072  163.7967 C.3     1  UNL1        0.0433
     10 C         142.6420  138.0695  162.4411 C.3     1  UNL1        0.0768
     11 N         141.8767  138.0369  161.1515 N.3     1  UNL1       -0.2720
     12 C         140.4524  138.4338  160.8989 C.3     1  UNL1        0.0768
     13 C         139.4416  138.9615  161.8735 C.3     1  UNL1        0.0433
     14 C         140.3715  142.2133  170.9231 C.3     1  UNL1        0.0754
     15 C         139.8533  141.2790  169.8703 C.ar    1  UNL1        0.1548
     16 C         140.1949  141.3193  168.4102 C.ar    1  UNL1        0.0580
     17 C         139.4552  140.2055  167.7303 C.ar    1  UNL1        0.1227
     18 N         138.6566  139.4768  168.7701 N.ar    1  UNL1       -0.0774
     19 O         138.9026  140.1403  170.0926 O.2     1  UNL1       -0.3578
     20 C         143.2609  138.8236  157.7845 C.3     1  UNL1        0.0666
     21 S         143.4743  140.2765  158.0902 S.3     1  UNL1       -0.0756
     22 C         143.2397  140.7931  159.4787 C.ar    1  UNL1        0.1932
     23 N         144.2372  140.7949  160.5990 N.ar    1  UNL1       -0.1221
     24 N         143.5805  141.4015  161.8035 N.ar    1  UNL1       -0.1282
     25 C         142.1772  141.7748  161.4275 C.ar    1  UNL1        0.1668
     26 N         141.9665  141.3988  159.9907 N.ar    1  UNL1       -0.2884
     27 C         140.7043  141.5941  159.2042 C.3     1  UNL1        0.1340
     28 C         141.1626  142.4121  162.3299 C.ar    1  UNL1        0.0359
     29 C         141.5443  142.8097  163.7250 C.ar    1  UNL1        0.0030
     30 C         140.5297  143.4470  164.6274 C.ar    1  UNL1        0.0039
     31 C         139.1334  143.6868  164.1348 C.ar    1  UNL1        0.0714
     32 C         138.7516  143.2893  162.7398 C.ar    1  UNL1        0.0039
     33 C         139.7662  142.6519  161.8374 C.ar    1  UNL1        0.0030
     34 C         138.1188  144.3242  165.0373 C.3     1  UNL1        0.4186
     35 F         137.1041  144.9615  165.9397 F       1  UNL1       -0.1659
     36 F         137.1252  143.2619  164.6705 F       1  UNL1       -0.1659
     37 F         139.1123  145.3864  165.4040 F       1  UNL1       -0.1659
@<TRIPOS>BOND
     1    14    15    1
     2    15    16   ar
     3    16    17   ar
     4    17     3    1
     5     3     4   ar
     6     4     5   ar
     7     5     6   ar
     8     6     7   ar
     9     7     8   ar
    10     7     9    1
    11     9    10    1
    12    10    11    1
    13    11     2    1
    14     2     1    1
    15     1    20    1
    16    20    21    1
    17    21    22    1
    18    22    23   ar
    19    23    24   ar
    20    24    25   ar
    21    25    28    1
    22    28    29   ar
    23    29    30   ar
    24    30    31   ar
    25    31    34    1
    26    34    35    1
    27    34    36    1
    28    34    37    1
    29    31    32   ar
    30    32    33   ar
    31    25    26   ar
    32    26    27    1
    33    11    12    1
    34    12    13    1
    35    17    18   ar
    36    18    19   ar
    37    19    15   ar
    38     8     3   ar
    39    26    22   ar
    40    13     6    1
    41    33    28   ar
@<TRIPOS>MOLECULE
*****
 37 41 0 0 0
SMALL
GASTEIGER

@<TRIPOS>ATOM
      1 C         141.3823  140.3917  157.2318 C.3     1  UNL1        0.0294
      2 C         142.6446  140.3264  158.0395 C.3     1  UNL1        0.0730
      3 C         142.5692  139.5048  165.4155 C.ar    1  UNL1        0.0206
      4 C         142.0993  138.1149  165.1034 C.ar    1  UNL1        0.0013
      5 C         141.9189  137.6867  163.6771 C.ar    1  UNL1       -0.0045
      6 C         142.2085  138.6485  162.5630 C.ar    1  UNL1       -0.0247
      7 C         142.6784  140.0383  162.8752 C.ar    1  UNL1       -0.0246
      8 C         142.8588  140.4665  164.3014 C.ar    1  UNL1       -0.0029
      9 C         143.0207  141.1458  161.9231 C.3     1  UNL1        0.0433
     10 C         142.9776  141.1369  160.4237 C.3     1  UNL1        0.0768
     11 N         142.5816  140.0183  159.5062 N.3     1  UNL1       -0.2720
     12 C         142.1308  138.6324  159.8613 C.3     1  UNL1        0.0768
     13 C         141.9648  138.0228  161.2217 C.3     1  UNL1        0.0433
     14 C         143.0063  142.4980  169.7433 C.3     1  UNL1        0.0754
     15 C         142.9505  141.3087  168.8311 C.ar    1  UNL1        0.1548
     16 C         142.7316  141.3449  167.3475 C.ar    1  UNL1        0.0580
     17 C         142.7496  139.9328  166.8418 C.ar    1  UNL1        0.1227
     18 N         142.9796  139.0239  168.0127 N.ar    1  UNL1       -0.0774
     19 O         143.1038  139.8743  169.2421 O.2     1  UNL1       -0.3578
     20 C         140.5963  141.6678  157.1704 C.3     1  UNL1        0.0666
     21 S         139.3185  141.7997  157.9446 S.3     1  UNL1       -0.0756
     22 C         139.0681  140.9206  159.1341 C.ar    1  UNL1        0.1932
     23 N         138.6088  139.4933  159.0944 N.ar    1  UNL1       -0.1221
     24 N         138.4899  139.0051  160.5077 N.ar    1  UNL1       -0.1282
     25 C         138.8759  140.1308  161.4209 C.ar    1  UNL1        0.1668
     26 N         139.2332  141.3147  160.5719 N.ar    1  UNL1       -0.2884
     27 C         139.6776  142.6569  161.0729 C.3     1  UNL1        0.1340
     28 C         138.9002  140.0813  162.9199 C.ar    1  UNL1        0.0359
     29 C         139.2996  141.2961  163.7040 C.ar    1  UNL1        0.0030
     30 C         139.3239  141.2466  165.2030 C.ar    1  UNL1        0.0039
     31 C         138.9488  139.9825  165.9179 C.ar    1  UNL1        0.0714
     32 C         138.5494  138.7677  165.1338 C.ar    1  UNL1        0.0039
     33 C         138.5251  138.8172  163.6348 C.ar    1  UNL1        0.0030
     34 C         138.9732  139.9330  167.4169 C.3     1  UNL1        0.4186
     35 F         138.9975  139.8835  168.9159 F       1  UNL1       -0.1659
     36 F         138.2928  138.5966  167.3838 F       1  UNL1       -0.1659
     37 F         139.6535  141.2694  167.4500 F       1  UNL1       -0.1659
@<TRIPOS>BOND
     1    14    15    1
     2    15    16   ar
     3    16    17   ar
     4    17     3    1
     5     3     4   ar
     6     4     5   ar
     7     5     6   ar
     8     6     7   ar
     9     7     8   ar
    10     7     9    1
    11     9    10    1
    12    10    11    1
    13    11     2    1
    14     2     1    1
    15     1    20    1
    16    20    21    1
    17    21    22    1
    18    22    23   ar
    19    23    24   ar
    20    24    25   ar
    21    25    28    1
    22    28    29   ar
    23    29    30   ar
    24    30    31   ar
    25    31    34    1
    26    34    35    1
    27    34    36    1
    28    34    37    1
    29    31    32   ar
    30    32    33   ar
    31    25    26   ar
    32    26    27    1
    33    11    12    1
    34    12    13    1
    35    17    18   ar
    36    18    19   ar
    37    19    15   ar
    38     8     3   ar
    39    26    22   ar
    40    13     6    1
    41    33    28   ar
