@<TRIPOS>MOLECULE
*****
 29 31 0 0 0
SMALL
GASTEIGER

@<TRIPOS>ATOM
      1 C         143.0514  141.8683  165.8734 C.3     1  UNL1        0.1467
      2 C         141.7070  142.5331  165.8970 C.3     1  UNL1        0.0489
      3 C         142.0827  142.7560  164.4621 C.3     1  UNL1        0.0238
      4 C         141.1456  143.4861  163.5462 C.3     1  UNL1        0.0725
      5 N         139.8329  143.9933  164.0653 N.3     1  UNL1       -0.2715
      6 C         138.8958  144.7234  163.1494 C.3     1  UNL1        0.0896
      7 C         139.4572  143.7704  165.5003 C.3     1  UNL1        0.0725
      8 C         140.3942  143.0403  166.4162 C.3     1  UNL1        0.0238
      9 C         141.7983  142.0793  167.3238 C.ar    1  UNL1       -0.0202
     10 C         143.0766  142.2591  168.0877 C.ar    1  UNL1       -0.0019
     11 C         143.1678  141.8053  169.5146 C.ar    1  UNL1        0.0293
     12 C         141.9808  141.1716  170.1774 C.ar    1  UNL1        0.1401
     13 F         142.0720  140.7178  171.6042 F       1  UNL1       -0.2042
     14 C         140.7024  140.9918  169.4134 C.ar    1  UNL1        0.0293
     15 C         140.6113  141.4456  167.9867 C.ar    1  UNL1       -0.0019
     16 O         143.4004  140.9211  164.7638 O.3     1  UNL1       -0.3470
     17 C         143.0622  139.4649  164.8866 C.3     1  UNL1        0.1876
     18 C         140.0309  138.0709  162.7376 C.ar    1  UNL1        0.2247
     19 C         138.9515  138.0085  163.7772 C.ar    1  UNL1        0.0615
     20 C         139.2422  138.4316  165.1866 C.ar    1  UNL1        0.0773
     21 C         140.6124  138.9170  165.5564 C.ar    1  UNL1        0.0213
     22 C         141.6919  138.9795  164.5168 C.ar    1  UNL1        0.0918
     23 N         141.4011  138.5564  163.1074 N.ar    1  UNL1       -0.2136
     24 C         138.1627  138.3691  166.2263 C.3     1  UNL1        0.4188
     25 F         137.0832  138.3067  167.2659 F       1  UNL1       -0.1659
     26 F         138.1928  139.8639  166.3472 F       1  UNL1       -0.1659
     27 F         138.1326  136.8743  166.1054 F       1  UNL1       -0.1659
     28 C         139.2559  138.6550  160.3276 C.3     1  UNL1        0.2542
     29 O         139.7401  137.6479  161.3282 O.3     1  UNL1       -0.4561
@<TRIPOS>BOND
     1    28    29    1
     2    29    18    1
     3    18    19   ar
     4    19    20   ar
     5    20    24    1
     6    24    25    1
     7    24    26    1
     8    24    27    1
     9    20    21   ar
    10    21    22   ar
    11    22    17    1
    12    17    16    1
    13    16     1    1
    14     1     2    1
    15     2     9    1
    16     9    10   ar
    17    10    11   ar
    18    11    12   ar
    19    12    13    1
    20    12    14   ar
    21    14    15   ar
    22     2     3    1
    23     3     4    1
    24     4     5    1
    25     5     6    1
    26     5     7    1
    27     7     8    1
    28    22    23   ar
    29    23    18   ar
    30     8     2    1
    31    15     9   ar
@<TRIPOS>MOLECULE
*****
 29 31 0 0 0
SMALL
GASTEIGER

@<TRIPOS>ATOM
      1 C         138.6756  138.3450  162.9103 C.3     1  UNL1        0.1467
      2 C         140.1340  138.3564  163.2607 C.3     1  UNL1        0.0489
      3 C         140.2226  138.1020  161.7852 C.3     1  UNL1        0.0238
      4 C         141.5629  137.9460  161.1301 C.3     1  UNL1        0.0725
      5 N         142.8147  138.0444  161.9508 N.3     1  UNL1       -0.2715
      6 C         144.1551  137.8884  161.2957 C.3     1  UNL1        0.0896
      7 C         142.7262  138.2988  163.4263 C.3     1  UNL1        0.0725
      8 C         141.3858  138.4548  164.0814 C.3     1  UNL1        0.0238
      9 C         139.5389  138.6069  164.6147 C.ar    1  UNL1       -0.0202
     10 C         138.6011  137.6041  165.2189 C.ar    1  UNL1       -0.0019
     11 C         138.0060  137.8545  166.5729 C.ar    1  UNL1        0.0293
     12 C         138.3486  139.1077  167.3225 C.ar    1  UNL1        0.1401
     13 F         137.7535  139.3582  168.6764 F       1  UNL1       -0.2042
     14 C         139.2864  140.1106  166.7183 C.ar    1  UNL1        0.0293
     15 C         139.8815  139.8601  165.3644 C.ar    1  UNL1       -0.0019
     16 O         138.1263  139.3606  161.9527 O.3     1  UNL1       -0.3470
     17 C         137.2971  140.5015  162.4633 C.3     1  UNL1        0.1876
     18 C         139.0366  143.8893  161.3467 C.ar    1  UNL1        0.2247
     19 C         139.0398  144.6465  162.6416 C.ar    1  UNL1        0.0615
     20 C         138.4622  144.0220  163.8770 C.ar    1  UNL1        0.0773
     21 C         137.8813  142.6403  163.8176 C.ar    1  UNL1        0.0213
     22 C         137.8780  141.8832  162.5227 C.ar    1  UNL1        0.0918
     23 N         138.4557  142.5077  161.2873 N.ar    1  UNL1       -0.2136
     24 C         138.4655  144.7792  165.1719 C.3     1  UNL1        0.4188
     25 F         138.4688  145.5363  166.4667 F       1  UNL1       -0.1659
     26 F         139.9445  144.9935  165.0428 F       1  UNL1       -0.1659
     27 F         136.9866  144.5649  165.3011 F       1  UNL1       -0.1659
     28 C         140.9217  145.2455  160.1818 C.3     1  UNL1        0.2542
     29 O         139.6142  144.5139  160.1113 O.3     1  UNL1       -0.4561
@<TRIPOS>BOND
     1    28    29    1
     2    29    18    1
     3    18    19   ar
     4    19    20   ar
     5    20    24    1
     6    24    25    1
     7    24    26    1
     8    24    27    1
     9    20    21   ar
    10    21    22   ar
    11    22    17    1
    12    17    16    1
    13    16     1    1
    14     1     2    1
    15     2     9    1
    16     9    10   ar
    17    10    11   ar
    18    11    12   ar
    19    12    13    1
    20    12    14   ar
    21    14    15   ar
    22     2     3    1
    23     3     4    1
    24     4     5    1
    25     5     6    1
    26     5     7    1
    27     7     8    1
    28    22    23   ar
    29    23    18   ar
    30     8     2    1
    31    15     9   ar
@<TRIPOS>MOLECULE
*****
 29 31 0 0 0
SMALL
GASTEIGER

@<TRIPOS>ATOM
      1 C         142.5555  139.6676  166.0819 C.3     1  UNL1        0.1467
      2 C         141.4779  139.9406  167.0890 C.3     1  UNL1        0.0489
      3 C         142.6731  140.4417  167.8441 C.3     1  UNL1        0.0238
      4 C         142.5056  141.0088  169.2226 C.3     1  UNL1        0.0725
      5 N         141.1428  141.0749  169.8459 N.3     1  UNL1       -0.2715
      6 C         140.9754  141.6421  171.2244 C.3     1  UNL1        0.0896
      7 C         139.9476  140.5739  169.0908 C.3     1  UNL1        0.0725
      8 C         140.1151  140.0067  167.7123 C.3     1  UNL1        0.0238
      9 C         140.6568  139.3447  165.9840 C.ar    1  UNL1       -0.0202
     10 C         141.2130  138.2234  165.1573 C.ar    1  UNL1       -0.0019
     11 C         140.3920  137.6275  164.0524 C.ar    1  UNL1        0.0293
     12 C         139.0149  138.1529  163.7742 C.ar    1  UNL1        0.1401
     13 F         138.1938  137.5570  162.6693 F       1  UNL1       -0.2042
     14 C         138.4587  139.2742  164.6009 C.ar    1  UNL1        0.0293
     15 C         139.2797  139.8701  165.7058 C.ar    1  UNL1       -0.0019
     16 O         143.5528  140.7354  165.7424 O.3     1  UNL1       -0.3470
     17 C         143.3496  141.5928  164.5286 C.3     1  UNL1        0.1876
     18 C         139.9480  141.8024  162.4949 C.ar    1  UNL1        0.2247
     19 C         139.1945  142.8142  163.3064 C.ar    1  UNL1        0.0615
     20 C         139.8260  143.4188  164.5253 C.ar    1  UNL1        0.0773
     21 C         141.2110  143.0117  164.9326 C.ar    1  UNL1        0.0213
     22 C         141.9645  142.0000  164.1212 C.ar    1  UNL1        0.0918
     23 N         141.3330  141.3953  162.9023 N.ar    1  UNL1       -0.2136
     24 C         139.0724  144.4307  165.3367 C.3     1  UNL1        0.4188
     25 F         138.3189  145.4424  166.1481 F       1  UNL1       -0.1659
     26 F         138.5202  145.0295  164.0772 F       1  UNL1       -0.1659
     27 F         139.6246  143.8319  166.5963 F       1  UNL1       -0.1659
     28 C         137.8575  140.8500  161.2816 C.3     1  UNL1        0.2542
     29 O         139.3166  141.1977  161.2761 O.3     1  UNL1       -0.4561
@<TRIPOS>BOND
     1    28    29    1
     2    29    18    1
     3    18    19   ar
     4    19    20   ar
     5    20    24    1
     6    24    25    1
     7    24    26    1
     8    24    27    1
     9    20    21   ar
    10    21    22   ar
    11    22    17    1
    12    17    16    1
    13    16     1    1
    14     1     2    1
    15     2     9    1
    16     9    10   ar
    17    10    11   ar
    18    11    12   ar
    19    12    13    1
    20    12    14   ar
    21    14    15   ar
    22     2     3    1
    23     3     4    1
    24     4     5    1
    25     5     6    1
    26     5     7    1
    27     7     8    1
    28    22    23   ar
    29    23    18   ar
    30     8     2    1
    31    15     9   ar
@<TRIPOS>MOLECULE
*****
 29 31 0 0 0
SMALL
GASTEIGER

@<TRIPOS>ATOM
      1 C         141.6595  142.3857  165.8447 C.3     1  UNL1        0.1467
      2 C         141.9048  141.4419  166.9845 C.3     1  UNL1        0.0489
      3 C         141.1822  142.5402  167.7066 C.3     1  UNL1        0.0238
      4 C         140.9262  142.4271  169.1802 C.3     1  UNL1        0.0725
      5 N         141.3929  141.2158  169.9318 N.3     1  UNL1       -0.2715
      6 C         141.1369  141.1027  171.4054 C.3     1  UNL1        0.0896
      7 C         142.1155  140.1175  169.2097 C.3     1  UNL1        0.0725
      8 C         142.3715  140.2305  167.7360 C.3     1  UNL1        0.0238
      9 C         142.5423  140.6714  165.8665 C.ar    1  UNL1       -0.0202
     10 C         143.4870  141.3584  164.9254 C.ar    1  UNL1       -0.0019
     11 C         144.1245  140.5878  163.8074 C.ar    1  UNL1        0.0293
     12 C         143.8174  139.1303  163.6305 C.ar    1  UNL1        0.1401
     13 F         144.4548  138.3597  162.5126 F       1  UNL1       -0.2042
     14 C         142.8726  138.4433  164.5716 C.ar    1  UNL1        0.0293
     15 C         142.2352  139.2139  165.6896 C.ar    1  UNL1       -0.0019
     16 O         140.2877  142.9492  165.6195 O.3     1  UNL1       -0.3470
     17 C         139.4107  142.3807  164.5437 C.3     1  UNL1        0.1876
     18 C         139.5576  138.7059  163.0522 C.ar    1  UNL1        0.2247
     19 C         138.9198  137.9239  164.1620 C.ar    1  UNL1        0.0615
     20 C         138.4455  138.6274  165.3990 C.ar    1  UNL1        0.0773
     21 C         138.6092  140.1130  165.5262 C.ar    1  UNL1        0.0213
     22 C         139.2470  140.8950  164.4165 C.ar    1  UNL1        0.0918
     23 N         139.7212  140.1914  163.1795 N.ar    1  UNL1       -0.2136
     24 C         137.8077  137.8453  166.5087 C.3     1  UNL1        0.4188
     25 F         137.1698  137.0632  167.6184 F       1  UNL1       -0.1659
     26 F         138.1888  136.5654  165.8257 F       1  UNL1       -0.1659
     27 F         137.4265  139.1252  167.1917 F       1  UNL1       -0.1659
     28 C         139.5203  138.4241  160.4698 C.3     1  UNL1        0.2542
     29 O         140.0318  138.0023  161.8153 O.3     1  UNL1       -0.4561
@<TRIPOS>BOND
     1    28    29    1
     2    29    18    1
     3    18    19   ar
     4    19    20   ar
     5    20    24    1
     6    24    25    1
     7    24    26    1
     8    24    27    1
     9    20    21   ar
    10    21    22   ar
    11    22    17    1
    12    17    16    1
    13    16     1    1
    14     1     2    1
    15     2     9    1
    16     9    10   ar
    17    10    11   ar
    18    11    12   ar
    19    12    13    1
    20    12    14   ar
    21    14    15   ar
    22     2     3    1
    23     3     4    1
    24     4     5    1
    25     5     6    1
    26     5     7    1
    27     7     8    1
    28    22    23   ar
    29    23    18   ar
    30     8     2    1
    31    15     9   ar
@<TRIPOS>MOLECULE
*****
 29 31 0 0 0
SMALL
GASTEIGER

@<TRIPOS>ATOM
      1 C         140.3037  137.7355  162.7203 C.3     1  UNL1        0.1467
      2 C         139.2978  138.6850  162.1401 C.3     1  UNL1        0.0489
      3 C         140.0456  138.3056  160.8964 C.3     1  UNL1        0.0238
      4 C         139.6491  138.8930  159.5743 C.3     1  UNL1        0.0725
      5 N         138.5048  139.8597  159.4961 N.3     1  UNL1       -0.2715
      6 C         138.1083  140.4471  158.1740 C.3     1  UNL1        0.0896
      7 C         137.7571  140.2391  160.7398 C.3     1  UNL1        0.0725
      8 C         138.1535  139.6517  162.0618 C.3     1  UNL1        0.0238
      9 C         138.8994  138.7346  163.5854 C.ar    1  UNL1       -0.0202
     10 C         138.8850  137.4770  164.4029 C.ar    1  UNL1       -0.0019
     11 C         138.4865  137.5266  165.8482 C.ar    1  UNL1        0.0293
     12 C         138.1026  138.8337  166.4759 C.ar    1  UNL1        0.1401
     13 F         137.7041  138.8834  167.9212 F       1  UNL1       -0.2042
     14 C         138.1170  140.0913  165.6583 C.ar    1  UNL1        0.0293
     15 C         138.5154  140.0416  164.2131 C.ar    1  UNL1       -0.0019
     16 O         141.7601  137.8973  162.3993 O.3     1  UNL1       -0.3470
     17 C         142.7137  138.3670  163.4575 C.3     1  UNL1        0.1876
     18 C         141.6787  141.9007  164.9379 C.ar    1  UNL1        0.2247
     19 C         141.4461  141.5480  166.3771 C.ar    1  UNL1        0.0615
     20 C         141.6360  140.1350  166.8432 C.ar    1  UNL1        0.0773
     21 C         142.0585  139.0746  165.8700 C.ar    1  UNL1        0.0213
     22 C         142.2911  139.4273  164.4308 C.ar    1  UNL1        0.0918
     23 N         142.1012  140.8404  163.9647 N.ar    1  UNL1       -0.2136
     24 C         141.4034  139.7823  168.2825 C.3     1  UNL1        0.4188
     25 F         141.1708  139.4297  169.7218 F       1  UNL1       -0.1659
     26 F         142.6388  138.9317  168.2737 F       1  UNL1       -0.1659
     27 F         140.1680  140.6330  168.2913 F       1  UNL1       -0.1659
     28 C         140.1825  144.0123  164.7080 C.3     1  UNL1        0.2542
     29 O         141.4887  143.3138  164.4718 O.3     1  UNL1       -0.4561
@<TRIPOS>BOND
     1    28    29    1
     2    29    18    1
     3    18    19   ar
     4    19    20   ar
     5    20    24    1
     6    24    25    1
     7    24    26    1
     8    24    27    1
     9    20    21   ar
    10    21    22   ar
    11    22    17    1
    12    17    16    1
    13    16     1    1
    14     1     2    1
    15     2     9    1
    16     9    10   ar
    17    10    11   ar
    18    11    12   ar
    19    12    13    1
    20    12    14   ar
    21    14    15   ar
    22     2     3    1
    23     3     4    1
    24     4     5    1
    25     5     6    1
    26     5     7    1
    27     7     8    1
    28    22    23   ar
    29    23    18   ar
    30     8     2    1
    31    15     9   ar
@<TRIPOS>MOLECULE
*****
 29 31 0 0 0
SMALL
GASTEIGER

@<TRIPOS>ATOM
      1 C         142.4564  142.4177  165.4236 C.3     1  UNL1        0.1467
      2 C         141.6162  142.5623  166.6577 C.3     1  UNL1        0.0489
      3 C         142.9043  142.1005  167.2721 C.3     1  UNL1        0.0238
      4 C         143.0063  141.9262  168.7585 C.3     1  UNL1        0.0725
      5 N         141.8200  142.2137  169.6304 N.3     1  UNL1       -0.2715
      6 C         141.9220  142.0394  171.1167 C.3     1  UNL1        0.0896
      7 C         140.5319  142.6754  169.0160 C.3     1  UNL1        0.0725
      8 C         140.4300  142.8497  167.5297 C.3     1  UNL1        0.0238
      9 C         140.6198  142.9738  165.6147 C.ar    1  UNL1       -0.0202
     10 C         139.2076  142.4737  165.6879 C.ar    1  UNL1       -0.0019
     11 C         138.2112  142.8853  164.6448 C.ar    1  UNL1        0.0293
     12 C         138.6271  143.7969  163.5286 C.ar    1  UNL1        0.1401
     13 F         137.6308  144.2085  162.4856 F       1  UNL1       -0.2042
     14 C         140.0395  144.2970  163.4555 C.ar    1  UNL1        0.0293
     15 C         141.0357  143.8854  164.4985 C.ar    1  UNL1       -0.0019
     16 O         143.3530  141.2261  165.2619 O.3     1  UNL1       -0.3470
     17 C         142.9157  140.0679  164.4150 C.3     1  UNL1        0.1876
     18 C         139.3785  140.1408  162.6170 C.ar    1  UNL1        0.2247
     19 C         138.5397  139.3939  163.6111 C.ar    1  UNL1        0.0615
     20 C         139.1596  138.8716  164.8733 C.ar    1  UNL1        0.0773
     21 C         140.6182  139.0962  165.1412 C.ar    1  UNL1        0.0213
     22 C         141.4570  139.8432  164.1471 C.ar    1  UNL1        0.0918
     23 N         140.8372  140.3655  162.8849 N.ar    1  UNL1       -0.2136
     24 C         138.3207  138.1246  165.8675 C.3     1  UNL1        0.4188
     25 F         137.4819  137.3776  166.8616 F       1  UNL1       -0.1659
     26 F         138.9566  136.8364  165.4361 F       1  UNL1       -0.1659
     27 F         137.6847  139.4128  166.2988 F       1  UNL1       -0.1659
     28 C         139.5148  141.6295  160.4921 C.3     1  UNL1        0.2542
     29 O         138.7587  140.6631  161.3548 O.3     1  UNL1       -0.4561
@<TRIPOS>BOND
     1    28    29    1
     2    29    18    1
     3    18    19   ar
     4    19    20   ar
     5    20    24    1
     6    24    25    1
     7    24    26    1
     8    24    27    1
     9    20    21   ar
    10    21    22   ar
    11    22    17    1
    12    17    16    1
    13    16     1    1
    14     1     2    1
    15     2     9    1
    16     9    10   ar
    17    10    11   ar
    18    11    12   ar
    19    12    13    1
    20    12    14   ar
    21    14    15   ar
    22     2     3    1
    23     3     4    1
    24     4     5    1
    25     5     6    1
    26     5     7    1
    27     7     8    1
    28    22    23   ar
    29    23    18   ar
    30     8     2    1
    31    15     9   ar
@<TRIPOS>MOLECULE
*****
 29 31 0 0 0
SMALL
GASTEIGER

@<TRIPOS>ATOM
      1 C         143.3295  139.4672  165.4550 C.3     1  UNL1        0.1467
      2 C         143.1143  140.9490  165.3646 C.3     1  UNL1        0.0489
      3 C         143.9600  140.7337  164.1447 C.3     1  UNL1        0.0238
      4 C         144.3228  141.8962  163.2689 C.3     1  UNL1        0.0725
      5 N         143.8399  143.2740  163.6132 N.3     1  UNL1       -0.2715
      6 C         144.2027  144.4365  162.7374 C.3     1  UNL1        0.0896
      7 C         142.9942  143.4893  164.8331 C.3     1  UNL1        0.0725
      8 C         142.6314  142.3268  165.7089 C.3     1  UNL1        0.0238
      9 C         142.3433  140.6496  166.6161 C.ar    1  UNL1       -0.0202
     10 C         142.9053  139.7029  167.6348 C.ar    1  UNL1       -0.0019
     11 C         142.1343  139.4036  168.8862 C.ar    1  UNL1        0.0293
     12 C         140.8014  140.0509  169.1189 C.ar    1  UNL1        0.1401
     13 F         140.0304  139.7517  170.3702 F       1  UNL1       -0.2042
     14 C         140.2394  140.9978  168.1001 C.ar    1  UNL1        0.0293
     15 C         141.0104  141.2970  166.8487 C.ar    1  UNL1       -0.0019
     16 O         143.2924  138.6269  164.2130 O.3     1  UNL1       -0.3470
     17 C         141.9951  138.0373  163.7448 C.3     1  UNL1        0.1876
     18 C         138.9339  140.5552  163.9432 C.ar    1  UNL1        0.2247
     19 C         138.0950  139.8988  164.9993 C.ar    1  UNL1        0.0615
     20 C         138.5561  138.6219  165.6373 C.ar    1  UNL1        0.0773
     21 C         139.8561  138.0014  165.2191 C.ar    1  UNL1        0.0213
     22 C         140.6950  138.6578  164.1630 C.ar    1  UNL1        0.0918
     23 N         140.2339  139.9347  163.5251 N.ar    1  UNL1       -0.2136
     24 C         137.7171  137.9656  166.6934 C.3     1  UNL1        0.4188
     25 F         136.8781  137.3093  167.7495 F       1  UNL1       -0.1659
     26 F         137.4763  139.3012  167.3321 F       1  UNL1       -0.1659
     27 F         137.9579  136.6299  166.0547 F       1  UNL1       -0.1659
     28 C         139.3937  143.0144  163.2428 C.3     1  UNL1        0.2542
     29 O         138.4728  141.8321  163.3053 O.3     1  UNL1       -0.4561
@<TRIPOS>BOND
     1    28    29    1
     2    29    18    1
     3    18    19   ar
     4    19    20   ar
     5    20    24    1
     6    24    25    1
     7    24    26    1
     8    24    27    1
     9    20    21   ar
    10    21    22   ar
    11    22    17    1
    12    17    16    1
    13    16     1    1
    14     1     2    1
    15     2     9    1
    16     9    10   ar
    17    10    11   ar
    18    11    12   ar
    19    12    13    1
    20    12    14   ar
    21    14    15   ar
    22     2     3    1
    23     3     4    1
    24     4     5    1
    25     5     6    1
    26     5     7    1
    27     7     8    1
    28    22    23   ar
    29    23    18   ar
    30     8     2    1
    31    15     9   ar
@<TRIPOS>MOLECULE
*****
 29 31 0 0 0
SMALL
GASTEIGER

@<TRIPOS>ATOM
      1 C         141.5831  139.5727  165.9124 C.3     1  UNL1        0.1467
      2 C         141.7510  140.7228  166.8605 C.3     1  UNL1        0.0489
      3 C         140.5555  140.0539  167.4715 C.3     1  UNL1        0.0238
      4 C         139.9228  140.6287  168.7041 C.3     1  UNL1        0.0725
      5 N         140.4856  141.8724  169.3257 N.3     1  UNL1       -0.2715
      6 C         139.8529  142.4472  170.5583 C.3     1  UNL1        0.0896
      7 C         141.6810  142.5414  168.7147 C.3     1  UNL1        0.0725
      8 C         142.3138  141.9666  167.4821 C.3     1  UNL1        0.0238
      9 C         142.8882  140.9924  165.9202 C.ar    1  UNL1       -0.0202
     10 C         143.2496  142.4043  165.5657 C.ar    1  UNL1       -0.0019
     11 C         144.3869  142.6739  164.6254 C.ar    1  UNL1        0.0293
     12 C         145.1626  141.5315  164.0396 C.ar    1  UNL1        0.1401
     13 F         146.2998  141.8009  163.0994 F       1  UNL1       -0.2042
     14 C         144.8011  140.1194  164.3942 C.ar    1  UNL1        0.0293
     15 C         143.6639  139.8500  165.3345 C.ar    1  UNL1       -0.0019
     16 O         140.2392  139.2870  165.3103 O.3     1  UNL1       -0.3470
     17 C         139.9690  139.6393  163.8776 C.3     1  UNL1        0.1876
     18 C         138.5049  142.6599  161.7604 C.ar    1  UNL1        0.2247
     19 C         138.3421  143.7013  162.8275 C.ar    1  UNL1        0.0615
     20 C         138.7216  143.3888  164.2447 C.ar    1  UNL1        0.0773
     21 C         139.2639  142.0348  164.5947 C.ar    1  UNL1        0.0213
     22 C         139.4267  140.9934  163.5276 C.ar    1  UNL1        0.0918
     23 N         139.0472  141.3059  162.1104 N.ar    1  UNL1       -0.2136
     24 C         138.5587  144.4304  165.3118 C.3     1  UNL1        0.4188
     25 F         138.3959  145.4718  166.3789 F       1  UNL1       -0.1659
     26 F         139.9351  144.1224  165.8224 F       1  UNL1       -0.1659
     27 F         137.1823  144.7383  164.8013 F       1  UNL1       -0.1659
     28 C         139.1629  142.9244  159.2610 C.3     1  UNL1        0.2542
     29 O         138.1255  142.9724  160.3432 O.3     1  UNL1       -0.4561
@<TRIPOS>BOND
     1    28    29    1
     2    29    18    1
     3    18    19   ar
     4    19    20   ar
     5    20    24    1
     6    24    25    1
     7    24    26    1
     8    24    27    1
     9    20    21   ar
    10    21    22   ar
    11    22    17    1
    12    17    16    1
    13    16     1    1
    14     1     2    1
    15     2     9    1
    16     9    10   ar
    17    10    11   ar
    18    11    12   ar
    19    12    13    1
    20    12    14   ar
    21    14    15   ar
    22     2     3    1
    23     3     4    1
    24     4     5    1
    25     5     6    1
    26     5     7    1
    27     7     8    1
    28    22    23   ar
    29    23    18   ar
    30     8     2    1
    31    15     9   ar
@<TRIPOS>MOLECULE
*****
 29 31 0 0 0
SMALL
GASTEIGER

@<TRIPOS>ATOM
      1 C         142.0045  139.4595  166.6453 C.3     1  UNL1        0.1467
      2 C         142.6838  140.7485  166.2890 C.3     1  UNL1        0.0489
      3 C         142.9507  139.9599  165.0413 C.3     1  UNL1        0.0238
      4 C         143.7224  140.5786  163.9136 C.3     1  UNL1        0.0725
      5 N         144.2271  141.9861  164.0337 N.3     1  UNL1       -0.2715
      6 C         144.9988  142.6048  162.9060 C.3     1  UNL1        0.0896
      7 C         143.9602  142.7747  165.2814 C.3     1  UNL1        0.0725
      8 C         143.1886  142.1560  166.4091 C.3     1  UNL1        0.0238
      9 C         142.1810  141.0895  167.6605 C.ar    1  UNL1       -0.0202
     10 C         141.3873  142.3436  167.8780 C.ar    1  UNL1       -0.0019
     11 C         140.8845  142.6846  169.2494 C.ar    1  UNL1        0.0293
     12 C         141.1752  141.7715  170.4034 C.ar    1  UNL1        0.1401
     13 F         140.6724  142.1124  171.7748 F       1  UNL1       -0.2042
     14 C         141.9689  140.5173  170.1859 C.ar    1  UNL1        0.0293
     15 C         142.4717  140.1764  168.8144 C.ar    1  UNL1       -0.0019
     16 O         141.0971  138.7913  165.6551 O.3     1  UNL1       -0.3470
     17 C         139.6242  139.0739  165.6780 C.3     1  UNL1        0.1876
     18 C         137.9030  141.1344  162.7553 C.ar    1  UNL1        0.2247
     19 C         137.9582  142.5239  163.3176 C.ar    1  UNL1        0.0615
     20 C         138.5686  142.7634  164.6667 C.ar    1  UNL1        0.0773
     21 C         139.1240  141.6135  165.4534 C.ar    1  UNL1        0.0213
     22 C         139.0688  140.2240  164.8912 C.ar    1  UNL1        0.0918
     23 N         138.4584  139.9844  163.5421 N.ar    1  UNL1       -0.2136
     24 C         138.6237  144.1530  165.2289 C.3     1  UNL1        0.4188
     25 F         138.6789  145.5426  165.7911 F       1  UNL1       -0.1659
     26 F         140.1063  144.0197  165.4131 F       1  UNL1       -0.1659
     27 F         137.1411  144.2864  165.0447 F       1  UNL1       -0.1659
     28 C         137.4412  139.5580  160.7425 C.3     1  UNL1        0.2542
     29 O         137.2926  140.8949  161.4063 O.3     1  UNL1       -0.4561
@<TRIPOS>BOND
     1    28    29    1
     2    29    18    1
     3    18    19   ar
     4    19    20   ar
     5    20    24    1
     6    24    25    1
     7    24    26    1
     8    24    27    1
     9    20    21   ar
    10    21    22   ar
    11    22    17    1
    12    17    16    1
    13    16     1    1
    14     1     2    1
    15     2     9    1
    16     9    10   ar
    17    10    11   ar
    18    11    12   ar
    19    12    13    1
    20    12    14   ar
    21    14    15   ar
    22     2     3    1
    23     3     4    1
    24     4     5    1
    25     5     6    1
    26     5     7    1
    27     7     8    1
    28    22    23   ar
    29    23    18   ar
    30     8     2    1
    31    15     9   ar
