@<TRIPOS>MOLECULE
*****
 33 36 0 0 0
SMALL
GASTEIGER

@<TRIPOS>ATOM
      1 C         143.3092  141.3276  161.0966 C.ar    1  UNL1        0.2298
      2 N         142.7259  140.0667  161.6619 N.ar    1  UNL1       -0.1786
      3 C         142.6915  138.8180  160.8314 C.ar    1  UNL1        0.2229
      4 N         143.2404  138.8304  159.4356 N.ar    1  UNL1       -0.2180
      5 C         143.8238  140.0914  158.8701 C.ar    1  UNL1        0.0641
      6 C         143.8582  141.3400  159.7007 C.ar    1  UNL1        0.0559
      7 C         144.4415  142.6009  159.1353 C.3     1  UNL1        0.0897
      8 S         144.9905  142.6133  157.7395 S.3     1  UNL1       -0.1348
      9 C         144.9560  141.3647  156.9089 C.3     1  UNL1        0.0642
     10 C         144.3727  140.1037  157.4743 C.3     1  UNL1        0.0574
     11 N         142.1081  137.5570  161.3968 N.pl3   1  UNL1       -0.2825
     12 H         142.3587  136.6846  161.0156 H       1  UNL1        0.1551
     13 C         141.1429  137.6254  162.5430 C.ar    1  UNL1        0.0505
     14 C         141.6453  137.5309  163.9533 C.ar    1  UNL1        0.0154
     15 C         140.6802  137.5992  165.0995 C.ar    1  UNL1        0.0115
     16 C         139.2125  137.7620  164.8354 C.ar    1  UNL1        0.0685
     17 C         138.7102  137.8564  163.4252 C.ar    1  UNL1        0.0115
     18 C         139.6753  137.7881  162.2790 C.ar    1  UNL1        0.0154
     19 C         138.2474  137.8303  165.9816 C.1     1  UNL1        0.1004
     20 N         137.2822  137.8986  167.1278 N.1     1  UNL1       -0.1908
     21 O         143.3436  142.5762  161.9271 O.3     1  UNL1       -0.4369
     22 C         140.5246  143.1232  162.7952 C.3     1  UNL1        0.0342
     23 C         141.5729  142.7930  163.8159 C.ar    1  UNL1        0.0124
     24 C         141.2117  142.7364  165.2707 C.ar    1  UNL1       -0.0012
     25 C         142.2601  142.4062  166.2914 C.ar    1  UNL1        0.0003
     26 C         143.6697  142.1327  165.8574 C.ar    1  UNL1       -0.0012
     27 C         144.0308  142.1894  164.4027 C.ar    1  UNL1        0.0124
     28 C         145.4404  141.9159  163.9686 C.3     1  UNL1        0.0342
     29 C         142.9825  142.5196  163.3819 C.ar    1  UNL1        0.1391
     30 C         141.8989  142.3495  167.7461 C.2     1  UNL1        0.0109
     31 C         140.5887  142.9086  168.2159 C.2     1  UNL1        0.0780
     32 C         140.2275  142.8519  169.6708 C.1     1  UNL1        0.1011
     33 N         139.8664  142.7952  171.1255 N.1     1  UNL1       -0.1908
@<TRIPOS>BOND
     1    22    23    1
     2    23    24   ar
     3    24    25   ar
     4    25    30    1
     5    30    31    2
     6    31    32    1
     7    32    33    3
     8    25    26   ar
     9    26    27   ar
    10    27    28    1
    11    27    29   ar
    12    29    21    1
    13    21     1    1
    14     1     2   ar
    15     2     3   ar
    16     3    11    1
    17    11    13    1
    18    13    14   ar
    19    14    15   ar
    20    15    16   ar
    21    16    19    1
    22    19    20    3
    23    16    17   ar
    24    17    18   ar
    25     3     4   ar
    26     4     5   ar
    27     5     6   ar
    28     6     7    1
    29     7     8    1
    30     8     9    1
    31     9    10    1
    32    29    23   ar
    33     6     1   ar
    34    18    13   ar
    35    10     5    1
    36    11    12    1
@<TRIPOS>MOLECULE
*****
 33 36 0 0 0
SMALL
GASTEIGER

@<TRIPOS>ATOM
      1 C         140.4778  142.0043  166.7329 C.ar    1  UNL1        0.2298
      2 N         139.7201  141.0790  165.8275 N.ar    1  UNL1       -0.1786
      3 C         139.0692  139.8488  166.3869 C.ar    1  UNL1        0.2229
      4 N         139.1760  139.5439  167.8516 N.ar    1  UNL1       -0.2180
      5 C         139.9337  140.4692  168.7571 C.ar    1  UNL1        0.0641
      6 C         140.5846  141.6994  168.1977 C.ar    1  UNL1        0.0559
      7 C         141.3423  142.6247  169.1031 C.3     1  UNL1        0.0897
      8 S         141.4490  142.3198  170.5678 S.3     1  UNL1       -0.1348
      9 C         140.7981  141.0895  171.1272 C.3     1  UNL1        0.0642
     10 C         140.0405  140.1643  170.2219 C.3     1  UNL1        0.0574
     11 N         138.3115  138.9235  165.4814 N.pl3   1  UNL1       -0.2825
     12 H         137.8634  138.1293  165.8525 H       1  UNL1        0.1551
     13 C         138.2366  139.2083  164.0106 C.ar    1  UNL1        0.0505
     14 C         137.7795  140.5535  163.5295 C.ar    1  UNL1        0.0154
     15 C         137.7046  140.8383  162.0587 C.ar    1  UNL1        0.0115
     16 C         138.0868  139.7779  161.0690 C.ar    1  UNL1        0.0685
     17 C         138.5439  138.4327  161.5501 C.ar    1  UNL1        0.0115
     18 C         138.6188  138.1479  163.0210 C.ar    1  UNL1        0.0154
     19 C         138.0119  140.0626  159.5982 C.1     1  UNL1        0.1004
     20 N         137.9370  140.3474  158.1274 N.1     1  UNL1       -0.1908
     21 O         141.1287  143.2345  166.1735 O.3     1  UNL1       -0.4369
     22 C         138.6981  144.8816  165.5577 C.3     1  UNL1        0.0342
     23 C         139.6313  144.4800  164.4541 C.ar    1  UNL1        0.0124
     24 C         139.3491  144.9020  163.0425 C.ar    1  UNL1       -0.0012
     25 C         140.2823  144.5004  161.9390 C.ar    1  UNL1        0.0003
     26 C         141.4976  143.6768  162.2469 C.ar    1  UNL1       -0.0012
     27 C         141.7797  143.2548  163.6583 C.ar    1  UNL1        0.0124
     28 C         142.9950  142.4313  163.9662 C.3     1  UNL1        0.0342
     29 C         140.8466  143.6564  164.7620 C.ar    1  UNL1        0.1391
     30 C         140.0001  144.9223  160.5275 C.2     1  UNL1        0.0109
     31 C         141.1348  145.2128  159.5905 C.2     1  UNL1        0.0780
     32 C         140.8526  145.6347  158.1789 C.1     1  UNL1        0.1011
     33 N         140.5704  146.0567  156.7674 N.1     1  UNL1       -0.1908
@<TRIPOS>BOND
     1    22    23    1
     2    23    24   ar
     3    24    25   ar
     4    25    30    1
     5    30    31    2
     6    31    32    1
     7    32    33    3
     8    25    26   ar
     9    26    27   ar
    10    27    28    1
    11    27    29   ar
    12    29    21    1
    13    21     1    1
    14     1     2   ar
    15     2     3   ar
    16     3    11    1
    17    11    13    1
    18    13    14   ar
    19    14    15   ar
    20    15    16   ar
    21    16    19    1
    22    19    20    3
    23    16    17   ar
    24    17    18   ar
    25     3     4   ar
    26     4     5   ar
    27     5     6   ar
    28     6     7    1
    29     7     8    1
    30     8     9    1
    31     9    10    1
    32    29    23   ar
    33     6     1   ar
    34    18    13   ar
    35    10     5    1
    36    11    12    1
@<TRIPOS>MOLECULE
*****
 33 36 0 0 0
SMALL
GASTEIGER

@<TRIPOS>ATOM
      1 C         141.2943  138.5855  160.7832 C.ar    1  UNL1        0.2298
      2 N         140.0589  139.2035  161.3678 N.ar    1  UNL1       -0.1786
      3 C         138.8909  139.5255  160.4834 C.ar    1  UNL1        0.2229
      4 N         138.9583  139.2295  159.0145 N.ar    1  UNL1       -0.2180
      5 C         140.1937  138.6114  158.4299 C.ar    1  UNL1        0.0641
      6 C         141.3617  138.2894  159.3143 C.ar    1  UNL1        0.0559
      7 C         142.5971  137.6714  158.7297 C.3     1  UNL1        0.0897
      8 S         142.6645  137.3753  157.2608 S.3     1  UNL1       -0.1348
      9 C         141.4965  137.6973  156.3764 C.3     1  UNL1        0.0642
     10 C         140.2611  138.3154  156.9610 C.3     1  UNL1        0.0574
     11 N         137.6554  140.1436  161.0681 N.pl3   1  UNL1       -0.2825
     12 H         136.7665  139.8434  160.7700 H       1  UNL1        0.1551
     13 C         137.7745  141.2192  162.1068 C.ar    1  UNL1        0.0505
     14 C         137.9380  142.6506  161.6890 C.ar    1  UNL1        0.0154
     15 C         138.0570  143.7261  162.7277 C.ar    1  UNL1        0.0115
     16 C         138.0126  143.3703  164.1843 C.ar    1  UNL1        0.0685
     17 C         137.8491  141.9390  164.6021 C.ar    1  UNL1        0.0115
     18 C         137.7300  140.8634  163.5633 C.ar    1  UNL1        0.0154
     19 C         138.1316  144.4459  165.2231 C.1     1  UNL1        0.1004
     20 N         138.2507  145.5214  166.2618 N.1     1  UNL1       -0.1908
     21 O         142.4623  138.2635  161.6676 O.3     1  UNL1       -0.4369
     22 C         140.9761  136.8972  163.8867 C.3     1  UNL1        0.0342
     23 C         141.7792  138.1318  164.1708 C.ar    1  UNL1        0.0124
     24 C         141.8392  138.6833  165.5645 C.ar    1  UNL1       -0.0012
     25 C         142.6424  139.9179  165.8486 C.ar    1  UNL1        0.0003
     26 C         143.3855  140.6010  164.7390 C.ar    1  UNL1       -0.0012
     27 C         143.3254  140.0496  163.3454 C.ar    1  UNL1        0.0124
     28 C         144.0685  140.7327  162.2358 C.3     1  UNL1        0.0342
     29 C         142.5223  138.8149  163.0612 C.ar    1  UNL1        0.1391
     30 C         142.7024  140.4694  167.2422 C.2     1  UNL1        0.0109
     31 C         142.9309  141.9359  167.4593 C.2     1  UNL1        0.0780
     32 C         142.9909  142.4873  168.8530 C.1     1  UNL1        0.1011
     33 N         143.0509  143.0387  170.2467 N.1     1  UNL1       -0.1908
@<TRIPOS>BOND
     1    22    23    1
     2    23    24   ar
     3    24    25   ar
     4    25    30    1
     5    30    31    2
     6    31    32    1
     7    32    33    3
     8    25    26   ar
     9    26    27   ar
    10    27    28    1
    11    27    29   ar
    12    29    21    1
    13    21     1    1
    14     1     2   ar
    15     2     3   ar
    16     3    11    1
    17    11    13    1
    18    13    14   ar
    19    14    15   ar
    20    15    16   ar
    21    16    19    1
    22    19    20    3
    23    16    17   ar
    24    17    18   ar
    25     3     4   ar
    26     4     5   ar
    27     5     6   ar
    28     6     7    1
    29     7     8    1
    30     8     9    1
    31     9    10    1
    32    29    23   ar
    33     6     1   ar
    34    18    13   ar
    35    10     5    1
    36    11    12    1
@<TRIPOS>MOLECULE
*****
 33 36 0 0 0
SMALL
GASTEIGER

@<TRIPOS>ATOM
      1 C         140.2394  141.1226  166.6814 C.ar    1  UNL1        0.2298
      2 N         141.1017  141.7994  165.6576 N.ar    1  UNL1       -0.1786
      3 C         142.4363  142.3588  166.0526 C.ar    1  UNL1        0.2229
      4 N         142.9086  142.2414  167.4714 N.ar    1  UNL1       -0.2180
      5 C         142.0463  141.5645  168.4953 C.ar    1  UNL1        0.0641
      6 C         140.7117  141.0051  168.1003 C.ar    1  UNL1        0.0559
      7 C         139.8494  140.3282  169.1242 C.3     1  UNL1        0.0897
      8 S         140.3217  140.2107  170.5430 S.3     1  UNL1       -0.1348
      9 C         141.6563  140.7701  170.9380 C.3     1  UNL1        0.0642
     10 C         142.5186  141.4470  169.9141 C.3     1  UNL1        0.0574
     11 N         143.2986  143.0357  165.0286 N.pl3   1  UNL1       -0.2825
     12 H         144.2666  143.1273  165.1832 H       1  UNL1        0.1551
     13 C         142.6860  143.5731  163.7693 C.ar    1  UNL1        0.0505
     14 C         141.6892  144.6920  163.8383 C.ar    1  UNL1        0.0154
     15 C         141.0767  145.2294  162.5790 C.ar    1  UNL1        0.0115
     16 C         141.4608  144.6479  161.2506 C.ar    1  UNL1        0.0685
     17 C         142.4575  143.5291  161.1817 C.ar    1  UNL1        0.0115
     18 C         143.0701  142.9917  162.4410 C.ar    1  UNL1        0.0154
     19 C         140.8482  145.1853  159.9913 C.1     1  UNL1        0.1004
     20 N         140.2356  145.7227  158.7320 N.1     1  UNL1       -0.1908
     21 O         138.9049  140.5632  166.2864 O.3     1  UNL1       -0.4369
     22 C         139.2934  137.8784  165.0054 C.3     1  UNL1        0.0342
     23 C         138.7667  139.0264  164.1962 C.ar    1  UNL1        0.0124
     24 C         138.4343  138.8319  162.7465 C.ar    1  UNL1       -0.0012
     25 C         137.9076  139.9799  161.9373 C.ar    1  UNL1        0.0003
     26 C         137.7133  141.3223  162.5778 C.ar    1  UNL1       -0.0012
     27 C         138.0457  141.5167  164.0275 C.ar    1  UNL1        0.0124
     28 C         137.8515  142.8591  164.6680 C.3     1  UNL1        0.0342
     29 C         138.5725  140.3687  164.8367 C.ar    1  UNL1        0.1391
     30 C         137.5752  139.7854  160.4876 C.2     1  UNL1        0.0109
     31 C         138.1149  140.7359  159.4603 C.2     1  UNL1        0.0780
     32 C         137.7825  140.5414  158.0106 C.1     1  UNL1        0.1011
     33 N         137.4500  140.3469  156.5609 N.1     1  UNL1       -0.1908
@<TRIPOS>BOND
     1    22    23    1
     2    23    24   ar
     3    24    25   ar
     4    25    30    1
     5    30    31    2
     6    31    32    1
     7    32    33    3
     8    25    26   ar
     9    26    27   ar
    10    27    28    1
    11    27    29   ar
    12    29    21    1
    13    21     1    1
    14     1     2   ar
    15     2     3   ar
    16     3    11    1
    17    11    13    1
    18    13    14   ar
    19    14    15   ar
    20    15    16   ar
    21    16    19    1
    22    19    20    3
    23    16    17   ar
    24    17    18   ar
    25     3     4   ar
    26     4     5   ar
    27     5     6   ar
    28     6     7    1
    29     7     8    1
    30     8     9    1
    31     9    10    1
    32    29    23   ar
    33     6     1   ar
    34    18    13   ar
    35    10     5    1
    36    11    12    1
@<TRIPOS>MOLECULE
*****
 33 36 0 0 0
SMALL
GASTEIGER

@<TRIPOS>ATOM
      1 C         140.2597  141.1091  166.7148 C.ar    1  UNL1        0.2298
      2 N         141.1764  141.6864  165.6774 N.ar    1  UNL1       -0.1786
      3 C         142.5455  142.1599  166.0662 C.ar    1  UNL1        0.2229
      4 N         142.9980  142.0560  167.4926 N.ar    1  UNL1       -0.2180
      5 C         142.0813  141.4787  168.5301 C.ar    1  UNL1        0.0641
      6 C         140.7122  141.0052  168.1412 C.ar    1  UNL1        0.0559
      7 C         139.7955  140.4279  169.1787 C.3     1  UNL1        0.0897
      8 S         140.2480  140.3240  170.6050 S.3     1  UNL1       -0.1348
      9 C         141.6171  140.7975  170.9939 C.3     1  UNL1        0.0642
     10 C         142.5338  141.3748  169.9564 C.3     1  UNL1        0.0574
     11 N         143.4622  142.7372  165.0287 N.pl3   1  UNL1       -0.2825
     12 H         144.0062  143.5304  165.2390 H       1  UNL1        0.1551
     13 C         143.5500  142.1061  163.6708 C.ar    1  UNL1        0.0505
     14 C         142.7790  142.6869  162.5225 C.ar    1  UNL1        0.0154
     15 C         142.8667  142.0558  161.1646 C.ar    1  UNL1        0.0115
     16 C         143.7255  140.8439  160.9549 C.ar    1  UNL1        0.0685
     17 C         144.4964  140.2632  162.1030 C.ar    1  UNL1        0.0115
     18 C         144.4086  140.8943  163.4610 C.ar    1  UNL1        0.0154
     19 C         143.8132  140.2128  159.5969 C.1     1  UNL1        0.1004
     20 N         143.9010  139.5817  158.2390 N.1     1  UNL1       -0.1908
     21 O         138.8905  140.6356  166.3260 O.3     1  UNL1       -0.4369
     22 C         139.2332  137.9334  165.0686 C.3     1  UNL1        0.0342
     23 C         138.7212  139.0818  164.2507 C.ar    1  UNL1        0.0124
     24 C         138.3804  138.8790  162.8040 C.ar    1  UNL1       -0.0012
     25 C         137.8684  140.0274  161.9860 C.ar    1  UNL1        0.0003
     26 C         137.6971  141.3785  162.6147 C.ar    1  UNL1       -0.0012
     27 C         138.0378  141.5812  164.0613 C.ar    1  UNL1        0.0124
     28 C         137.8664  142.9323  164.6899 C.3     1  UNL1        0.0342
     29 C         138.5498  140.4329  164.8793 C.ar    1  UNL1        0.1391
     30 C         137.5277  139.8246  160.5394 C.2     1  UNL1        0.0109
     31 C         138.1529  140.6977  159.4921 C.2     1  UNL1        0.0780
     32 C         137.8122  140.4949  158.0454 C.1     1  UNL1        0.1011
     33 N         137.4714  140.2921  156.5988 N.1     1  UNL1       -0.1908
@<TRIPOS>BOND
     1    22    23    1
     2    23    24   ar
     3    24    25   ar
     4    25    30    1
     5    30    31    2
     6    31    32    1
     7    32    33    3
     8    25    26   ar
     9    26    27   ar
    10    27    28    1
    11    27    29   ar
    12    29    21    1
    13    21     1    1
    14     1     2   ar
    15     2     3   ar
    16     3    11    1
    17    11    13    1
    18    13    14   ar
    19    14    15   ar
    20    15    16   ar
    21    16    19    1
    22    19    20    3
    23    16    17   ar
    24    17    18   ar
    25     3     4   ar
    26     4     5   ar
    27     5     6   ar
    28     6     7    1
    29     7     8    1
    30     8     9    1
    31     9    10    1
    32    29    23   ar
    33     6     1   ar
    34    18    13   ar
    35    10     5    1
    36    11    12    1
@<TRIPOS>MOLECULE
*****
 33 36 0 0 0
SMALL
GASTEIGER

@<TRIPOS>ATOM
      1 C         141.4062  144.2084  160.4737 C.ar    1  UNL1        0.2298
      2 N         142.5277  143.3037  160.8904 N.ar    1  UNL1       -0.1786
      3 C         143.5830  142.9117  159.8991 C.ar    1  UNL1        0.2229
      4 N         143.5168  143.4245  158.4911 N.ar    1  UNL1       -0.2180
      5 C         142.3953  144.3292  158.0743 C.ar    1  UNL1        0.0641
      6 C         141.3399  144.7212  159.0656 C.ar    1  UNL1        0.0559
      7 C         140.2184  145.6259  158.6489 C.3     1  UNL1        0.0897
      8 S         140.1523  146.1386  157.2408 S.3     1  UNL1       -0.1348
      9 C         141.2076  145.7467  156.2495 C.3     1  UNL1        0.0642
     10 C         142.3291  144.8420  156.6662 C.3     1  UNL1        0.0574
     11 N         144.7045  142.0070  160.3159 N.pl3   1  UNL1       -0.2825
     12 H         145.5146  141.9392  159.7606 H       1  UNL1        0.1551
     13 C         144.5918  141.2055  161.5788 C.ar    1  UNL1        0.0505
     14 C         143.8911  139.8793  161.5654 C.ar    1  UNL1        0.0154
     15 C         143.7783  139.0778  162.8283 C.ar    1  UNL1        0.0115
     16 C         144.3662  139.6027  164.1047 C.ar    1  UNL1        0.0685
     17 C         145.0669  140.9289  164.1181 C.ar    1  UNL1        0.0115
     18 C         145.1796  141.7303  162.8551 C.ar    1  UNL1        0.0154
     19 C         144.2534  138.8012  165.3676 C.1     1  UNL1        0.1004
     20 N         144.1406  137.9998  166.6305 N.1     1  UNL1       -0.1908
     21 O         140.3509  144.6003  161.4650 O.3     1  UNL1       -0.4369
     22 C         138.2682  142.4410  161.4610 C.3     1  UNL1        0.0342
     23 C         139.0889  142.6891  162.6917 C.ar    1  UNL1        0.0124
     24 C         138.8683  141.8576  163.9206 C.ar    1  UNL1       -0.0012
     25 C         139.6890  142.1057  165.1513 C.ar    1  UNL1        0.0003
     26 C         140.7304  143.1853  165.1533 C.ar    1  UNL1       -0.0012
     27 C         140.9510  144.0168  163.9246 C.ar    1  UNL1        0.0124
     28 C         141.9923  145.0965  163.9266 C.3     1  UNL1        0.0342
     29 C         140.1302  143.7688  162.6938 C.ar    1  UNL1        0.1391
     30 C         139.4684  141.2742  166.3801 C.2     1  UNL1        0.0109
     31 C         140.3135  141.4981  167.5989 C.2     1  UNL1        0.0780
     32 C         140.0928  140.6665  168.8277 C.1     1  UNL1        0.1011
     33 N         139.8721  139.8350  170.0565 N.1     1  UNL1       -0.1908
@<TRIPOS>BOND
     1    22    23    1
     2    23    24   ar
     3    24    25   ar
     4    25    30    1
     5    30    31    2
     6    31    32    1
     7    32    33    3
     8    25    26   ar
     9    26    27   ar
    10    27    28    1
    11    27    29   ar
    12    29    21    1
    13    21     1    1
    14     1     2   ar
    15     2     3   ar
    16     3    11    1
    17    11    13    1
    18    13    14   ar
    19    14    15   ar
    20    15    16   ar
    21    16    19    1
    22    19    20    3
    23    16    17   ar
    24    17    18   ar
    25     3     4   ar
    26     4     5   ar
    27     5     6   ar
    28     6     7    1
    29     7     8    1
    30     8     9    1
    31     9    10    1
    32    29    23   ar
    33     6     1   ar
    34    18    13   ar
    35    10     5    1
    36    11    12    1
@<TRIPOS>MOLECULE
*****
 33 36 0 0 0
SMALL
GASTEIGER

@<TRIPOS>ATOM
      1 C         141.8148  143.5874  159.8175 C.ar    1  UNL1        0.2298
      2 N         140.6188  143.4749  160.7157 N.ar    1  UNL1       -0.1786
      3 C         139.2412  143.4095  160.1256 C.ar    1  UNL1        0.2229
      4 N         139.0598  143.4567  158.6374 N.ar    1  UNL1       -0.2180
      5 C         140.2559  143.5693  157.7392 C.ar    1  UNL1        0.0641
      6 C         141.6334  143.6347  158.3292 C.ar    1  UNL1        0.0559
      7 C         142.8294  143.7472  157.4311 C.3     1  UNL1        0.0897
      8 S         142.6480  143.7944  155.9429 S.3     1  UNL1       -0.1348
      9 C         141.2704  143.7291  155.3528 C.3     1  UNL1        0.0642
     10 C         140.0744  143.6165  156.2510 C.3     1  UNL1        0.0574
     11 N         138.0451  143.2969  161.0239 N.pl3   1  UNL1       -0.2825
     12 H         137.2453  143.8438  160.8495 H       1  UNL1        0.1551
     13 C         138.0677  142.3510  162.1878 C.ar    1  UNL1        0.0505
     14 C         138.1810  142.8841  163.5854 C.ar    1  UNL1        0.0154
     15 C         138.2036  141.9382  164.7493 C.ar    1  UNL1        0.0115
     16 C         138.1129  140.4592  164.5157 C.ar    1  UNL1        0.0685
     17 C         137.9996  139.9262  163.1183 C.ar    1  UNL1        0.0115
     18 C         137.9770  140.8721  161.9543 C.ar    1  UNL1        0.0154
     19 C         138.1355  139.5133  165.6797 C.1     1  UNL1        0.1004
     20 N         138.1581  138.5674  166.8437 N.1     1  UNL1       -0.1908
     21 O         143.1923  143.6528  160.4076 O.3     1  UNL1       -0.4369
     22 C         143.4207  144.4485  163.2911 C.3     1  UNL1        0.0342
     23 C         143.7320  143.0416  162.8744 C.ar    1  UNL1        0.0124
     24 C         144.1576  142.0325  163.8994 C.ar    1  UNL1       -0.0012
     25 C         144.4689  140.6256  163.4827 C.ar    1  UNL1        0.0003
     26 C         144.3547  140.2278  162.0409 C.ar    1  UNL1       -0.0012
     27 C         143.9292  141.2368  161.0159 C.ar    1  UNL1        0.0124
     28 C         143.8150  140.8390  159.5741 C.3     1  UNL1        0.0342
     29 C         143.6178  142.6438  161.4326 C.ar    1  UNL1        0.1391
     30 C         144.8944  139.6166  164.5077 C.2     1  UNL1        0.0109
     31 C         143.8680  138.9490  165.3742 C.2     1  UNL1        0.0780
     32 C         144.2936  137.9399  166.3993 C.1     1  UNL1        0.1011
     33 N         144.7191  136.9309  167.4243 N.1     1  UNL1       -0.1908
@<TRIPOS>BOND
     1    22    23    1
     2    23    24   ar
     3    24    25   ar
     4    25    30    1
     5    30    31    2
     6    31    32    1
     7    32    33    3
     8    25    26   ar
     9    26    27   ar
    10    27    28    1
    11    27    29   ar
    12    29    21    1
    13    21     1    1
    14     1     2   ar
    15     2     3   ar
    16     3    11    1
    17    11    13    1
    18    13    14   ar
    19    14    15   ar
    20    15    16   ar
    21    16    19    1
    22    19    20    3
    23    16    17   ar
    24    17    18   ar
    25     3     4   ar
    26     4     5   ar
    27     5     6   ar
    28     6     7    1
    29     7     8    1
    30     8     9    1
    31     9    10    1
    32    29    23   ar
    33     6     1   ar
    34    18    13   ar
    35    10     5    1
    36    11    12    1
@<TRIPOS>MOLECULE
*****
 33 36 0 0 0
SMALL
GASTEIGER

@<TRIPOS>ATOM
      1 C         140.8010  141.0402  166.9759 C.ar    1  UNL1        0.2298
      2 N         141.5909  140.1567  166.0564 N.ar    1  UNL1       -0.1786
      3 C         142.7054  139.3131  166.6009 C.ar    1  UNL1        0.2229
      4 N         143.0299  139.3530  168.0648 N.ar    1  UNL1       -0.2180
      5 C         142.2400  140.2365  168.9843 C.ar    1  UNL1        0.0641
      6 C         141.1255  141.0801  168.4399 C.ar    1  UNL1        0.0559
      7 C         140.3356  141.9636  169.3593 C.3     1  UNL1        0.0897
      8 S         140.6602  142.0035  170.8232 S.3     1  UNL1       -0.1348
      9 C         141.7746  141.1599  171.3677 C.3     1  UNL1        0.0642
     10 C         142.5645  140.2764  170.4482 C.3     1  UNL1        0.0574
     11 N         143.4953  138.4296  165.6813 N.pl3   1  UNL1       -0.2825
     12 H         143.9519  137.6328  166.0361 H       1  UNL1        0.1551
     13 C         143.5894  138.7600  164.2212 C.ar    1  UNL1        0.0505
     14 C         144.5259  139.8348  163.7543 C.ar    1  UNL1        0.0154
     15 C         144.6200  140.1652  162.2942 C.ar    1  UNL1        0.0115
     16 C         143.7776  139.4210  161.3010 C.ar    1  UNL1        0.0685
     17 C         142.8411  138.3463  161.7679 C.ar    1  UNL1        0.0115
     18 C         142.7470  138.0158  163.2280 C.ar    1  UNL1        0.0154
     19 C         143.8717  139.7515  159.8409 C.1     1  UNL1        0.1004
     20 N         143.9658  140.0819  158.3807 N.1     1  UNL1       -0.1908
     21 O         139.6866  141.8838  166.4314 O.3     1  UNL1       -0.4369
     22 C         138.0145  139.6717  165.2866 C.3     1  UNL1        0.0342
     23 C         138.5404  140.7545  164.3917 C.ar    1  UNL1        0.0124
     24 C         138.2301  140.7313  162.9242 C.ar    1  UNL1       -0.0012
     25 C         138.7560  141.8141  162.0293 C.ar    1  UNL1        0.0003
     26 C         139.5920  142.9202  162.6017 C.ar    1  UNL1       -0.0012
     27 C         139.9023  142.9434  164.0691 C.ar    1  UNL1        0.0124
     28 C         140.7383  144.0495  164.6415 C.3     1  UNL1        0.0342
     29 C         139.3764  141.8606  164.9641 C.ar    1  UNL1        0.1391
     30 C         138.4458  141.7909  160.5619 C.2     1  UNL1        0.0109
     31 C         138.1483  140.4891  159.8788 C.2     1  UNL1        0.0780
     32 C         137.8381  140.4659  158.4113 C.1     1  UNL1        0.1011
     33 N         137.5279  140.4427  156.9439 N.1     1  UNL1       -0.1908
@<TRIPOS>BOND
     1    22    23    1
     2    23    24   ar
     3    24    25   ar
     4    25    30    1
     5    30    31    2
     6    31    32    1
     7    32    33    3
     8    25    26   ar
     9    26    27   ar
    10    27    28    1
    11    27    29   ar
    12    29    21    1
    13    21     1    1
    14     1     2   ar
    15     2     3   ar
    16     3    11    1
    17    11    13    1
    18    13    14   ar
    19    14    15   ar
    20    15    16   ar
    21    16    19    1
    22    19    20    3
    23    16    17   ar
    24    17    18   ar
    25     3     4   ar
    26     4     5   ar
    27     5     6   ar
    28     6     7    1
    29     7     8    1
    30     8     9    1
    31     9    10    1
    32    29    23   ar
    33     6     1   ar
    34    18    13   ar
    35    10     5    1
    36    11    12    1
@<TRIPOS>MOLECULE
*****
 33 36 0 0 0
SMALL
GASTEIGER

@<TRIPOS>ATOM
      1 C         142.8289  140.3236  159.0949 C.ar    1  UNL1        0.2298
      2 N         142.6030  141.3832  160.1322 N.ar    1  UNL1       -0.1786
      3 C         143.2551  142.7262  159.9868 C.ar    1  UNL1        0.2229
      4 N         144.1331  143.0095  158.8041 N.ar    1  UNL1       -0.2180
      5 C         144.3591  141.9499  157.7667 C.ar    1  UNL1        0.0641
      6 C         143.7070  140.6069  157.9121 C.ar    1  UNL1        0.0559
      7 C         143.9329  139.5472  156.8748 C.3     1  UNL1        0.0897
      8 S         144.8109  139.8306  155.6921 S.3     1  UNL1       -0.1348
      9 C         145.4630  141.1736  155.5467 C.3     1  UNL1        0.0642
     10 C         145.2371  142.2332  156.5841 C.3     1  UNL1        0.0574
     11 N         143.0292  143.7859  161.0242 N.pl3   1  UNL1       -0.2825
     12 H         142.8606  144.7160  160.7492 H       1  UNL1        0.1551
     13 C         143.0602  143.4283  162.4806 C.ar    1  UNL1        0.0505
     14 C         141.8061  143.5098  163.2997 C.ar    1  UNL1        0.0154
     15 C         141.8371  143.1523  164.7562 C.ar    1  UNL1        0.0115
     16 C         143.1221  142.7132  165.3935 C.ar    1  UNL1        0.0685
     17 C         144.3760  142.6317  164.5744 C.ar    1  UNL1        0.0115
     18 C         144.3451  142.9893  163.1180 C.ar    1  UNL1        0.0154
     19 C         143.1531  142.3557  166.8499 C.1     1  UNL1        0.1004
     20 N         143.1840  141.9981  168.3064 N.1     1  UNL1       -0.1908
     21 O         142.1768  138.9806  159.2402 O.3     1  UNL1       -0.4369
     22 C         139.2071  139.3857  159.3686 C.3     1  UNL1        0.0342
     23 C         139.9425  138.8452  160.5590 C.ar    1  UNL1        0.0124
     24 C         139.1930  138.5072  161.8137 C.ar    1  UNL1       -0.0012
     25 C         139.9283  137.9667  163.0040 C.ar    1  UNL1        0.0003
     26 C         141.4132  137.7641  162.9398 C.ar    1  UNL1       -0.0012
     27 C         142.1627  138.1021  161.6853 C.ar    1  UNL1        0.0124
     28 C         143.6476  137.8995  161.6211 C.3     1  UNL1        0.0342
     29 C         141.4273  138.6426  160.4948 C.ar    1  UNL1        0.1391
     30 C         139.1788  137.6287  164.2586 C.2     1  UNL1        0.0109
     31 C         138.6523  138.7254  165.1362 C.2     1  UNL1        0.0780
     32 C         137.9028  138.3873  166.3908 C.1     1  UNL1        0.1011
     33 N         137.1533  138.0494  167.6454 N.1     1  UNL1       -0.1908
@<TRIPOS>BOND
     1    22    23    1
     2    23    24   ar
     3    24    25   ar
     4    25    30    1
     5    30    31    2
     6    31    32    1
     7    32    33    3
     8    25    26   ar
     9    26    27   ar
    10    27    28    1
    11    27    29   ar
    12    29    21    1
    13    21     1    1
    14     1     2   ar
    15     2     3   ar
    16     3    11    1
    17    11    13    1
    18    13    14   ar
    19    14    15   ar
    20    15    16   ar
    21    16    19    1
    22    19    20    3
    23    16    17   ar
    24    17    18   ar
    25     3     4   ar
    26     4     5   ar
    27     5     6   ar
    28     6     7    1
    29     7     8    1
    30     8     9    1
    31     9    10    1
    32    29    23   ar
    33     6     1   ar
    34    18    13   ar
    35    10     5    1
    36    11    12    1
