@<TRIPOS>MOLECULE
*****
 34 38 0 0 0
SMALL
GASTEIGER

@<TRIPOS>ATOM
      1 N         140.3702  141.0481  164.9361 N.ar    1  UNL1       -0.3052
      2 C         139.4436  141.5356  163.8620 C.ar    1  UNL1        0.0757
      3 C         139.9285  140.9934  162.5502 C.ar    1  UNL1       -0.0035
      4 C         141.1548  140.1707  162.8136 C.ar    1  UNL1        0.0144
      5 C         142.0581  139.3951  161.9012 C.ar    1  UNL1        0.0126
      6 C         143.2345  138.6534  162.4634 C.ar    1  UNL1        0.0578
      7 CL        144.1378  137.8778  161.5510 Cl      1  UNL1       -0.0822
      8 C         143.5075  138.6872  163.9379 C.ar    1  UNL1        0.0129
      9 C         142.6041  139.4628  164.8503 C.ar    1  UNL1        0.0184
     10 C         141.4278  140.2045  164.2881 C.ar    1  UNL1        0.0638
     11 C         140.0361  141.9568  169.3307 C.ar    1  UNL1        0.0141
     12 C         139.6738  140.5950  168.8168 C.ar    1  UNL1        0.0026
     13 C         139.7851  140.2921  167.3519 C.ar    1  UNL1        0.0176
     14 C         140.2588  141.3510  166.4010 C.ar    1  UNL1        0.0640
     15 C         140.6212  142.7128  166.9150 C.ar    1  UNL1        0.0176
     16 C         140.5098  143.0157  168.3798 C.ar    1  UNL1        0.0026
     17 O         140.6391  141.3997  171.7956 O.co2   1  UNL1       -0.5446
     18 C         139.9247  142.2597  170.7956 C.2     1  UNL1        0.0729
     19 O         139.0990  143.4224  171.2604 O.co2   1  UNL1       -0.5446
     20 C         139.2978  141.2319  161.2103 C.3     1  UNL1        0.0266
     21 C         138.5917  140.1127  160.5038 C.3     1  UNL1        0.0218
     22 C         137.9611  140.3512  159.1639 C.3     1  UNL1        0.0725
     23 N         138.0365  141.7088  158.5304 N.3     1  UNL1       -0.2712
     24 C         138.7426  142.8279  159.2369 C.3     1  UNL1        0.0725
     25 C         139.3732  142.5894  160.5768 C.3     1  UNL1        0.0218
     26 C         137.4058  141.9473  157.1905 C.3     1  UNL1        0.0939
     27 C         136.9043  140.7886  156.3808 C.3     1  UNL1        0.1123
     28 N         135.5563  140.8583  155.7265 N.am    1  UNL1       -0.2610
     29 C         135.2464  141.5145  154.4137 C.3     1  UNL1        0.1162
     30 C         133.7801  141.3460  154.1459 C.3     1  UNL1        0.1124
     31 N         133.1838  140.5856  155.2933 N.am    1  UNL1       -0.2870
     32 C         134.2815  140.2843  156.2701 C.2     1  UNL1        0.3041
     33 O         134.1309  139.5396  157.5634 O.2     1  UNL1       -0.2526
     34 H         132.2380  140.3294  155.3885 H       1  UNL1        0.1510
@<TRIPOS>UNITY_ATOM_ATTR
17 1
charge -1
@<TRIPOS>BOND
     1    17    18   ar
     2    18    19   ar
     3    18    11    1
     4    11    12   ar
     5    12    13   ar
     6    13    14   ar
     7    14     1    1
     8     1     2   ar
     9     2     3   ar
    10     3    20    1
    11    20    21    1
    12    21    22    1
    13    22    23    1
    14    23    26    1
    15    26    27    1
    16    27    28    1
    17    28    29    1
    18    29    30    1
    19    30    31    1
    20    31    32   am
    21    32    33    2
    22    23    24    1
    23    24    25    1
    24     3     4   ar
    25     4     5   ar
    26     5     6   ar
    27     6     7    1
    28     6     8   ar
    29     8     9   ar
    30     9    10   ar
    31    14    15   ar
    32    15    16   ar
    33    16    11   ar
    34    10     1   ar
    35    25    20    1
    36    10     4   ar
    37    32    28   am
    38    31    34    1
@<TRIPOS>MOLECULE
*****
 34 38 0 0 0
SMALL
GASTEIGER

@<TRIPOS>ATOM
      1 N         141.0494  142.2443  164.9174 N.ar    1  UNL1       -0.3052
      2 C         141.5233  143.1171  163.7933 C.ar    1  UNL1        0.0757
      3 C         140.9412  142.5859  162.5170 C.ar    1  UNL1       -0.0035
      4 C         140.1075  141.3848  162.8524 C.ar    1  UNL1        0.0144
      5 C         139.2961  140.4561  161.9985 C.ar    1  UNL1        0.0126
      6 C         138.5516  139.3163  162.6281 C.ar    1  UNL1        0.0578
      7 CL        137.7402  138.3876  161.7742 Cl      1  UNL1       -0.0822
      8 C         138.6185  139.1052  164.1117 C.ar    1  UNL1        0.0129
      9 C         139.4299  140.0339  164.9656 C.ar    1  UNL1        0.0184
     10 C         140.1744  141.1737  164.3359 C.ar    1  UNL1        0.0638
     11 C         142.0728  142.7491  169.2704 C.ar    1  UNL1        0.0141
     12 C         143.1290  142.3171  168.2968 C.ar    1  UNL1        0.0026
     13 C         142.7878  142.1489  166.8458 C.ar    1  UNL1        0.0176
     14 C         141.3906  142.4126  166.3684 C.ar    1  UNL1        0.0640
     15 C         140.3343  142.8445  167.3421 C.ar    1  UNL1        0.0176
     16 C         140.6755  143.0128  168.7930 C.ar    1  UNL1        0.0026
     17 O         141.7193  142.0834  171.7567 O.co2   1  UNL1       -0.5446
     18 C         142.4140  142.9173  170.7214 C.2     1  UNL1        0.0729
     19 O         143.4499  143.9194  171.1369 O.co2   1  UNL1       -0.5446
     20 C         141.1551  143.1557  161.1461 C.3     1  UNL1        0.0266
     21 C         140.6204  144.5157  160.8073 C.3     1  UNL1        0.0218
     22 C         140.8344  145.0855  159.4363 C.3     1  UNL1        0.0725
     23 N         141.5830  144.2954  158.4041 N.3     1  UNL1       -0.2712
     24 C         142.1176  142.9355  158.7430 C.3     1  UNL1        0.0725
     25 C         141.9037  142.3657  160.1139 C.3     1  UNL1        0.0218
     26 C         141.7970  144.8652  157.0332 C.3     1  UNL1        0.0939
     27 C         140.9627  146.0194  156.5622 C.3     1  UNL1        0.1123
     28 N         139.6335  145.7687  155.9136 N.am    1  UNL1       -0.2610
     29 C         138.9035  144.4588  155.8770 C.3     1  UNL1        0.1162
     30 C         137.6198  144.6644  155.1286 C.3     1  UNL1        0.1124
     31 N         137.5566  146.1013  154.7028 N.am    1  UNL1       -0.2870
     32 C         138.8011  146.7838  155.1879 C.2     1  UNL1        0.3041
     33 O         139.1516  148.2278  154.9833 O.2     1  UNL1       -0.2526
     34 H         136.8265  146.5225  154.1941 H       1  UNL1        0.1510
@<TRIPOS>UNITY_ATOM_ATTR
17 1
charge -1
@<TRIPOS>BOND
     1    17    18   ar
     2    18    19   ar
     3    18    11    1
     4    11    12   ar
     5    12    13   ar
     6    13    14   ar
     7    14     1    1
     8     1     2   ar
     9     2     3   ar
    10     3    20    1
    11    20    21    1
    12    21    22    1
    13    22    23    1
    14    23    26    1
    15    26    27    1
    16    27    28    1
    17    28    29    1
    18    29    30    1
    19    30    31    1
    20    31    32   am
    21    32    33    2
    22    23    24    1
    23    24    25    1
    24     3     4   ar
    25     4     5   ar
    26     5     6   ar
    27     6     7    1
    28     6     8   ar
    29     8     9   ar
    30     9    10   ar
    31    14    15   ar
    32    15    16   ar
    33    16    11   ar
    34    10     1   ar
    35    25    20    1
    36    10     4   ar
    37    32    28   am
    38    31    34    1
@<TRIPOS>MOLECULE
*****
 34 38 0 0 0
SMALL
GASTEIGER

@<TRIPOS>ATOM
      1 N         140.4106  141.0866  164.9204 N.ar    1  UNL1       -0.3052
      2 C         139.5220  141.6268  163.8394 C.ar    1  UNL1        0.0757
      3 C         140.0051  141.0831  162.5275 C.ar    1  UNL1       -0.0035
      4 C         141.1923  140.2069  162.7978 C.ar    1  UNL1        0.0144
      5 C         142.0774  139.4073  161.8883 C.ar    1  UNL1        0.0126
      6 C         143.2131  138.6100  162.4577 C.ar    1  UNL1        0.0578
      7 CL        144.0983  137.8104  161.5482 Cl      1  UNL1       -0.0822
      8 C         143.4637  138.6121  163.9366 C.ar    1  UNL1        0.0129
      9 C         142.5785  139.4117  164.8461 C.ar    1  UNL1        0.0184
     10 C         141.4428  140.2090  164.2767 C.ar    1  UNL1        0.0638
     11 C         140.0438  141.9474  169.3221 C.ar    1  UNL1        0.0141
     12 C         140.4844  143.0287  168.3806 C.ar    1  UNL1        0.0026
     13 C         140.6066  142.7418  166.9133 C.ar    1  UNL1        0.0176
     14 C         140.2883  141.3735  166.3876 C.ar    1  UNL1        0.0640
     15 C         139.8478  140.2921  167.3292 C.ar    1  UNL1        0.0176
     16 C         139.7256  140.5790  168.7964 C.ar    1  UNL1        0.0026
     17 O         139.1399  143.4256  171.2579 O.co2   1  UNL1       -0.5446
     18 C         139.9216  142.2343  170.7893 C.2     1  UNL1        0.0729
     19 O         140.5811  141.3299  171.7879 O.co2   1  UNL1       -0.5446
     20 C         139.4063  141.3659  161.1816 C.3     1  UNL1        0.0266
     21 C         139.5295  142.7338  160.5784 C.3     1  UNL1        0.0218
     22 C         138.9307  143.0167  159.2325 C.3     1  UNL1        0.0725
     23 N         138.2086  141.9317  158.4898 N.3     1  UNL1       -0.2712
     24 C         138.0855  140.5639  159.0931 C.3     1  UNL1        0.0725
     25 C         138.6843  140.2811  160.4390 C.3     1  UNL1        0.0218
     26 C         137.6098  142.2146  157.1439 C.3     1  UNL1        0.0939
     27 C         138.4714  142.7439  156.0361 C.3     1  UNL1        0.1123
     28 N         138.4671  144.2097  155.7176 N.am    1  UNL1       -0.2610
     29 C         139.3533  145.2491  156.3374 C.3     1  UNL1        0.1162
     30 C         139.0098  146.5753  155.7263 C.3     1  UNL1        0.1124
     31 N         137.9113  146.3554  154.7288 N.am    1  UNL1       -0.2870
     32 C         137.5759  144.8934  154.7234 C.2     1  UNL1        0.3041
     33 O         136.5325  144.2314  153.8732 O.2     1  UNL1       -0.2526
     34 H         137.4853  147.0489  154.1749 H       1  UNL1        0.1510
@<TRIPOS>UNITY_ATOM_ATTR
17 1
charge -1
@<TRIPOS>BOND
     1    17    18   ar
     2    18    19   ar
     3    18    11    1
     4    11    12   ar
     5    12    13   ar
     6    13    14   ar
     7    14     1    1
     8     1     2   ar
     9     2     3   ar
    10     3    20    1
    11    20    21    1
    12    21    22    1
    13    22    23    1
    14    23    26    1
    15    26    27    1
    16    27    28    1
    17    28    29    1
    18    29    30    1
    19    30    31    1
    20    31    32   am
    21    32    33    2
    22    23    24    1
    23    24    25    1
    24     3     4   ar
    25     4     5   ar
    26     5     6   ar
    27     6     7    1
    28     6     8   ar
    29     8     9   ar
    30     9    10   ar
    31    14    15   ar
    32    15    16   ar
    33    16    11   ar
    34    10     1   ar
    35    25    20    1
    36    10     4   ar
    37    32    28   am
    38    31    34    1
@<TRIPOS>MOLECULE
*****
 34 38 0 0 0
SMALL
GASTEIGER

@<TRIPOS>ATOM
      1 N         140.3741  141.2587  164.5220 N.ar    1  UNL1       -0.3052
      2 C         140.6305  140.1259  163.5728 C.ar    1  UNL1        0.0757
      3 C         140.6936  140.6899  162.1843 C.ar    1  UNL1       -0.0035
      4 C         140.4762  142.1713  162.2754 C.ar    1  UNL1        0.0144
      5 C         140.4326  143.2455  161.2295 C.ar    1  UNL1        0.0126
      6 C         140.1915  144.6713  161.6283 C.ar    1  UNL1        0.0578
      7 CL        140.1479  145.7456  160.5823 Cl      1  UNL1       -0.0822
      8 C         139.9941  145.0228  163.0731 C.ar    1  UNL1        0.0129
      9 C         140.0377  143.9486  164.1191 C.ar    1  UNL1        0.0184
     10 C         140.2788  142.5228  163.7202 C.ar    1  UNL1        0.0638
     11 C         139.9630  140.9235  168.9907 C.ar    1  UNL1        0.0141
     12 C         140.8146  142.0051  168.3949 C.ar    1  UNL1        0.0026
     13 C         140.9516  142.1168  166.9053 C.ar    1  UNL1        0.0176
     14 C         140.2371  141.1470  166.0116 C.ar    1  UNL1        0.0640
     15 C         139.3854  140.0654  166.6074 C.ar    1  UNL1        0.0176
     16 C         139.2484  139.9537  168.0970 C.ar    1  UNL1        0.0026
     17 O         139.4191  139.5080  171.1002 O.co2   1  UNL1       -0.5446
     18 C         139.8260  140.8118  170.4803 C.2     1  UNL1        0.0729
     19 O         140.0958  142.0040  171.3497 O.co2   1  UNL1       -0.5446
     20 C         140.9322  139.9096  160.9257 C.3     1  UNL1        0.0266
     21 C         142.3312  139.5536  160.5178 C.3     1  UNL1        0.0218
     22 C         142.5698  138.7732  159.2592 C.3     1  UNL1        0.0725
     23 N         141.4095  138.3490  158.4084 N.3     1  UNL1       -0.2712
     24 C         140.0107  138.7050  158.8163 C.3     1  UNL1        0.0725
     25 C         139.7721  139.4853  160.0749 C.3     1  UNL1        0.0218
     26 C         141.6481  137.5686  157.1498 C.3     1  UNL1        0.0939
     27 C         142.7377  136.5389  157.1010 C.3     1  UNL1        0.1123
     28 N         142.4475  135.1643  156.5752 N.am    1  UNL1       -0.2610
     29 C         141.4859  134.8262  155.4748 C.3     1  UNL1        0.1162
     30 C         141.5120  133.3395  155.2769 C.3     1  UNL1        0.1124
     31 N         142.4899  132.7588  156.2550 N.am    1  UNL1       -0.2870
     32 C         143.0681  133.8866  157.0574 C.2     1  UNL1        0.3041
     33 O         144.0877  133.7591  158.1500 O.2     1  UNL1       -0.2526
     34 H         142.7131  131.8050  156.3531 H       1  UNL1        0.1510
@<TRIPOS>UNITY_ATOM_ATTR
17 1
charge -1
@<TRIPOS>BOND
     1    17    18   ar
     2    18    19   ar
     3    18    11    1
     4    11    12   ar
     5    12    13   ar
     6    13    14   ar
     7    14     1    1
     8     1     2   ar
     9     2     3   ar
    10     3    20    1
    11    20    21    1
    12    21    22    1
    13    22    23    1
    14    23    26    1
    15    26    27    1
    16    27    28    1
    17    28    29    1
    18    29    30    1
    19    30    31    1
    20    31    32   am
    21    32    33    2
    22    23    24    1
    23    24    25    1
    24     3     4   ar
    25     4     5   ar
    26     5     6   ar
    27     6     7    1
    28     6     8   ar
    29     8     9   ar
    30     9    10   ar
    31    14    15   ar
    32    15    16   ar
    33    16    11   ar
    34    10     1   ar
    35    25    20    1
    36    10     4   ar
    37    32    28   am
    38    31    34    1
@<TRIPOS>MOLECULE
*****
 34 38 0 0 0
SMALL
GASTEIGER

@<TRIPOS>ATOM
      1 N         140.6234  141.3197  164.9250 N.ar    1  UNL1       -0.3052
      2 C         139.8750  142.0183  163.8287 C.ar    1  UNL1        0.0757
      3 C         140.3781  141.4937  162.5167 C.ar    1  UNL1       -0.0035
      4 C         141.4375  140.4708  162.8020 C.ar    1  UNL1        0.0144
      5 C         142.2836  139.6233  161.8987 C.ar    1  UNL1        0.0126
      6 C         143.2814  138.6684  162.4840 C.ar    1  UNL1        0.0578
      7 CL        144.1276  137.8209  161.5807 Cl      1  UNL1       -0.0822
      8 C         143.4330  138.5609  163.9724 C.ar    1  UNL1        0.0129
      9 C         142.5868  139.4083  164.8756 C.ar    1  UNL1        0.0184
     10 C         141.5891  140.3632  164.2904 C.ar    1  UNL1        0.0638
     11 C         140.0690  141.9776  169.3420 C.ar    1  UNL1        0.0141
     12 C         139.7342  140.6479  168.7339 C.ar    1  UNL1        0.0026
     13 C         139.9190  140.4286  167.2616 C.ar    1  UNL1        0.0176
     14 C         140.4386  141.5390  166.3973 C.ar    1  UNL1        0.0640
     15 C         140.7735  142.8687  167.0054 C.ar    1  UNL1        0.0176
     16 C         140.5887  143.0880  168.4778 C.ar    1  UNL1        0.0026
     17 O         139.1145  143.3873  171.3044 O.co2   1  UNL1       -0.5446
     18 C         139.8842  142.1969  170.8144 C.2     1  UNL1        0.0729
     19 O         140.4692  141.2257  171.7965 O.co2   1  UNL1       -0.5446
     20 C         139.9050  141.9175  161.1578 C.3     1  UNL1        0.0266
     21 C         138.7261  141.2365  160.5280 C.3     1  UNL1        0.0218
     22 C         138.2529  141.6603  159.1691 C.3     1  UNL1        0.0725
     23 N         138.9586  142.7651  158.4400 N.3     1  UNL1       -0.2712
     24 C         140.1374  143.4460  159.0699 C.3     1  UNL1        0.0725
     25 C         140.6105  143.0222  160.4287 C.3     1  UNL1        0.0218
     26 C         138.4854  143.1889  157.0812 C.3     1  UNL1        0.0939
     27 C         139.4507  143.7957  156.1065 C.3     1  UNL1        0.1123
     28 N         139.4650  145.2801  155.8906 N.am    1  UNL1       -0.2610
     29 C         138.3731  146.0891  155.2556 C.3     1  UNL1        0.1162
     30 C         138.8069  147.5251  155.2443 C.3     1  UNL1        0.1124
     31 N         140.1669  147.6034  155.8723 N.am    1  UNL1       -0.2870
     32 C         140.5736  146.2159  156.2718 C.2     1  UNL1        0.3041
     33 O         141.8626  145.8318  156.9357 O.2     1  UNL1       -0.2526
     34 H         140.6991  148.4217  156.0000 H       1  UNL1        0.1510
@<TRIPOS>UNITY_ATOM_ATTR
17 1
charge -1
@<TRIPOS>BOND
     1    17    18   ar
     2    18    19   ar
     3    18    11    1
     4    11    12   ar
     5    12    13   ar
     6    13    14   ar
     7    14     1    1
     8     1     2   ar
     9     2     3   ar
    10     3    20    1
    11    20    21    1
    12    21    22    1
    13    22    23    1
    14    23    26    1
    15    26    27    1
    16    27    28    1
    17    28    29    1
    18    29    30    1
    19    30    31    1
    20    31    32   am
    21    32    33    2
    22    23    24    1
    23    24    25    1
    24     3     4   ar
    25     4     5   ar
    26     5     6   ar
    27     6     7    1
    28     6     8   ar
    29     8     9   ar
    30     9    10   ar
    31    14    15   ar
    32    15    16   ar
    33    16    11   ar
    34    10     1   ar
    35    25    20    1
    36    10     4   ar
    37    32    28   am
    38    31    34    1
@<TRIPOS>MOLECULE
*****
 34 38 0 0 0
SMALL
GASTEIGER

@<TRIPOS>ATOM
      1 N         139.5233  139.3291  161.7728 N.ar    1  UNL1       -0.3052
      2 C         140.0293  138.2434  160.8699 C.ar    1  UNL1        0.0757
      3 C         140.3506  138.8588  159.5402 C.ar    1  UNL1       -0.0035
      4 C         140.0432  140.3247  159.6213 C.ar    1  UNL1        0.0144
      5 C         140.1628  141.4324  158.6170 C.ar    1  UNL1        0.0126
      6 C         139.7711  142.8307  158.9925 C.ar    1  UNL1        0.0578
      7 CL        139.8907  143.9385  157.9881 Cl      1  UNL1       -0.0822
      8 C         139.2597  143.1214  160.3723 C.ar    1  UNL1        0.0129
      9 C         139.1401  142.0137  161.3767 C.ar    1  UNL1        0.0184
     10 C         139.5318  140.6154  161.0011 C.ar    1  UNL1        0.0638
     11 C         138.2099  138.8171  166.0464 C.ar    1  UNL1        0.0141
     12 C         138.1025  140.1588  165.3843 C.ar    1  UNL1        0.0026
     13 C         138.5403  140.3295  163.9598 C.ar    1  UNL1        0.0176
     14 C         139.0855  139.1585  163.1973 C.ar    1  UNL1        0.0640
     15 C         139.1929  137.8167  163.8594 C.ar    1  UNL1        0.0176
     16 C         138.7551  137.6461  165.2839 C.ar    1  UNL1        0.0026
     17 O         136.6387  137.7213  167.8014 O.co2   1  UNL1       -0.5446
     18 C         137.7721  138.6465  167.4709 C.2     1  UNL1        0.0729
     19 O         138.4677  139.4011  168.5648 O.co2   1  UNL1       -0.5446
     20 C         140.8855  138.1352  158.3400 C.3     1  UNL1        0.0266
     21 C         139.9514  137.6934  157.2526 C.3     1  UNL1        0.0218
     22 C         140.4863  136.9698  156.0525 C.3     1  UNL1        0.0725
     23 N         141.9552  136.6881  155.9396 N.3     1  UNL1       -0.2712
     24 C         142.8893  137.1298  157.0270 C.3     1  UNL1        0.0725
     25 C         142.3544  137.8534  158.2271 C.3     1  UNL1        0.0218
     26 C         142.4901  135.9645  154.7395 C.3     1  UNL1        0.0939
     27 C         143.5207  134.8881  154.9105 C.3     1  UNL1        0.1123
     28 N         143.1350  133.5692  155.5121 N.am    1  UNL1       -0.2610
     29 C         142.4514  132.4409  154.7984 C.3     1  UNL1        0.1162
     30 C         142.2590  131.3214  155.7782 C.3     1  UNL1        0.1124
     31 N         142.8238  131.7581  157.0974 N.am    1  UNL1       -0.2870
     32 C         143.3652  133.1473  156.9330 C.2     1  UNL1        0.3041
     33 O         144.0214  133.9699  158.0018 O.2     1  UNL1       -0.2526
     34 H         142.8369  131.2262  157.9258 H       1  UNL1        0.1510
@<TRIPOS>UNITY_ATOM_ATTR
17 1
charge -1
@<TRIPOS>BOND
     1    17    18   ar
     2    18    19   ar
     3    18    11    1
     4    11    12   ar
     5    12    13   ar
     6    13    14   ar
     7    14     1    1
     8     1     2   ar
     9     2     3   ar
    10     3    20    1
    11    20    21    1
    12    21    22    1
    13    22    23    1
    14    23    26    1
    15    26    27    1
    16    27    28    1
    17    28    29    1
    18    29    30    1
    19    30    31    1
    20    31    32   am
    21    32    33    2
    22    23    24    1
    23    24    25    1
    24     3     4   ar
    25     4     5   ar
    26     5     6   ar
    27     6     7    1
    28     6     8   ar
    29     8     9   ar
    30     9    10   ar
    31    14    15   ar
    32    15    16   ar
    33    16    11   ar
    34    10     1   ar
    35    25    20    1
    36    10     4   ar
    37    32    28   am
    38    31    34    1
@<TRIPOS>MOLECULE
*****
 34 38 0 0 0
SMALL
GASTEIGER

@<TRIPOS>ATOM
      1 N         141.2014  142.2430  164.4652 N.ar    1  UNL1       -0.3052
      2 C         141.1760  140.9886  163.6431 C.ar    1  UNL1        0.0757
      3 C         140.8632  141.3693  162.2263 C.ar    1  UNL1       -0.0035
      4 C         140.6952  142.8589  162.1728 C.ar    1  UNL1        0.0144
      5 C         140.3789  143.7934  161.0429 C.ar    1  UNL1        0.0126
      6 C         140.2717  145.2678  161.2968 C.ar    1  UNL1        0.0578
      7 CL        139.9554  146.2024  160.1669 Cl      1  UNL1       -0.0822
      8 C         140.4808  145.8078  162.6805 C.ar    1  UNL1        0.0129
      9 C         140.7971  144.8733  163.8104 C.ar    1  UNL1        0.0184
     10 C         140.9043  143.3989  163.5566 C.ar    1  UNL1        0.0638
     11 C         142.0245  142.4943  168.8822 C.ar    1  UNL1        0.0141
     12 C         143.1526  142.2634  167.9210 C.ar    1  UNL1        0.0026
     13 C         142.8782  142.1796  166.4487 C.ar    1  UNL1        0.0176
     14 C         141.4758  142.3268  165.9375 C.ar    1  UNL1        0.0640
     15 C         140.3476  142.5577  166.8987 C.ar    1  UNL1        0.0176
     16 C         140.6220  142.6415  168.3711 C.ar    1  UNL1        0.0026
     17 O         141.7511  141.5326  171.2801 O.co2   1  UNL1       -0.5446
     18 C         142.2988  142.5781  170.3545 C.2     1  UNL1        0.0729
     19 O         143.1209  143.7074  170.9011 O.co2   1  UNL1       -0.5446
     20 C         140.7399  140.4260  161.0666 C.3     1  UNL1        0.0266
     21 C         139.4281  140.2814  160.3535 C.3     1  UNL1        0.0218
     22 C         139.3048  139.3381  159.1937 C.3     1  UNL1        0.0725
     23 N         140.4933  138.5393  158.7471 N.3     1  UNL1       -0.2712
     24 C         141.8050  138.6839  159.4601 C.3     1  UNL1        0.0725
     25 C         141.9283  139.6272  160.6199 C.3     1  UNL1        0.0218
     26 C         140.3700  137.5960  157.5873 C.3     1  UNL1        0.0939
     27 C         141.1551  137.8428  156.3333 C.3     1  UNL1        0.1123
     28 N         142.2113  136.8673  155.9055 N.am    1  UNL1       -0.2610
     29 C         141.9852  135.4349  155.5220 C.3     1  UNL1        0.1162
     30 C         143.3132  134.8353  155.1655 C.3     1  UNL1        0.1124
     31 N         144.3600  135.8972  155.3288 N.am    1  UNL1       -0.2870
     32 C         143.6790  137.1531  155.7861 C.2     1  UNL1        0.3041
     33 O         144.3482  138.4643  156.0735 O.2     1  UNL1       -0.2526
     34 H         145.3246  135.7889  155.1646 H       1  UNL1        0.1510
@<TRIPOS>UNITY_ATOM_ATTR
17 1
charge -1
@<TRIPOS>BOND
     1    17    18   ar
     2    18    19   ar
     3    18    11    1
     4    11    12   ar
     5    12    13   ar
     6    13    14   ar
     7    14     1    1
     8     1     2   ar
     9     2     3   ar
    10     3    20    1
    11    20    21    1
    12    21    22    1
    13    22    23    1
    14    23    26    1
    15    26    27    1
    16    27    28    1
    17    28    29    1
    18    29    30    1
    19    30    31    1
    20    31    32   am
    21    32    33    2
    22    23    24    1
    23    24    25    1
    24     3     4   ar
    25     4     5   ar
    26     5     6   ar
    27     6     7    1
    28     6     8   ar
    29     8     9   ar
    30     9    10   ar
    31    14    15   ar
    32    15    16   ar
    33    16    11   ar
    34    10     1   ar
    35    25    20    1
    36    10     4   ar
    37    32    28   am
    38    31    34    1
@<TRIPOS>MOLECULE
*****
 34 38 0 0 0
SMALL
GASTEIGER

@<TRIPOS>ATOM
      1 N         140.3940  141.0865  165.0518 N.ar    1  UNL1       -0.3052
      2 C         139.4638  141.5434  163.9674 C.ar    1  UNL1        0.0757
      3 C         139.9465  140.9671  162.6694 C.ar    1  UNL1       -0.0035
      4 C         141.1750  140.1540  162.9516 C.ar    1  UNL1        0.0144
      5 C         142.0775  139.3559  162.0580 C.ar    1  UNL1        0.0126
      6 C         143.2567  138.6318  162.6368 C.ar    1  UNL1        0.0578
      7 CL        144.1593  137.8337  161.7432 Cl      1  UNL1       -0.0822
      8 C         143.5333  138.7056  164.1092 C.ar    1  UNL1        0.0129
      9 C         142.6308  139.5037  165.0028 C.ar    1  UNL1        0.0184
     10 C         141.4516  140.2278  164.4240 C.ar    1  UNL1        0.0638
     11 C         140.0692  142.1121  169.4214 C.ar    1  UNL1        0.0141
     12 C         139.7329  140.7289  168.9486 C.ar    1  UNL1        0.0026
     13 C         139.8412  140.3871  167.4921 C.ar    1  UNL1        0.0176
     14 C         140.2857  141.4284  166.5083 C.ar    1  UNL1        0.0640
     15 C         140.6221  142.8117  166.9811 C.ar    1  UNL1        0.0176
     16 C         140.5138  143.1535  168.4376 C.ar    1  UNL1        0.0026
     17 O         140.8556  141.7793  171.8750 O.co2   1  UNL1       -0.5446
     18 C         139.9609  142.4539  170.8779 C.2     1  UNL1        0.0729
     19 O         138.9580  143.4703  171.3372 O.co2   1  UNL1       -0.5446
     20 C         139.3120  141.1684  161.3252 C.3     1  UNL1        0.0266
     21 C         139.4207  142.4962  160.6358 C.3     1  UNL1        0.0218
     22 C         138.7863  142.6976  159.2916 C.3     1  UNL1        0.0725
     23 N         138.0431  141.5712  158.6367 N.3     1  UNL1       -0.2712
     24 C         137.9343  140.2434  159.3261 C.3     1  UNL1        0.0725
     25 C         138.5688  140.0421  160.6703 C.3     1  UNL1        0.0218
     26 C         137.4086  141.7725  157.2925 C.3     1  UNL1        0.0939
     27 C         138.2039  141.5303  156.0440 C.3     1  UNL1        0.1123
     28 N         139.5452  140.8638  156.1267 N.am    1  UNL1       -0.2610
     29 C         140.8738  141.5587  156.1692 C.3     1  UNL1        0.1162
     30 C         141.9432  140.5098  156.2501 C.3     1  UNL1        0.1124
     31 N         141.2753  139.1667  156.2576 N.am    1  UNL1       -0.2870
     32 C         139.7933  139.3854  156.1813 C.2     1  UNL1        0.3041
     33 O         138.7438  138.3140  156.1629 O.2     1  UNL1       -0.2526
     34 H         141.7299  138.2947  156.3043 H       1  UNL1        0.1510
@<TRIPOS>UNITY_ATOM_ATTR
17 1
charge -1
@<TRIPOS>BOND
     1    17    18   ar
     2    18    19   ar
     3    18    11    1
     4    11    12   ar
     5    12    13   ar
     6    13    14   ar
     7    14     1    1
     8     1     2   ar
     9     2     3   ar
    10     3    20    1
    11    20    21    1
    12    21    22    1
    13    22    23    1
    14    23    26    1
    15    26    27    1
    16    27    28    1
    17    28    29    1
    18    29    30    1
    19    30    31    1
    20    31    32   am
    21    32    33    2
    22    23    24    1
    23    24    25    1
    24     3     4   ar
    25     4     5   ar
    26     5     6   ar
    27     6     7    1
    28     6     8   ar
    29     8     9   ar
    30     9    10   ar
    31    14    15   ar
    32    15    16   ar
    33    16    11   ar
    34    10     1   ar
    35    25    20    1
    36    10     4   ar
    37    32    28   am
    38    31    34    1
@<TRIPOS>MOLECULE
*****
 34 38 0 0 0
SMALL
GASTEIGER

@<TRIPOS>ATOM
      1 N         141.4417  141.7148  164.8980 N.ar    1  UNL1       -0.3052
      2 C         142.1628  142.3408  163.7412 C.ar    1  UNL1        0.0757
      3 C         141.6258  141.7358  162.4781 C.ar    1  UNL1       -0.0035
      4 C         140.5727  140.7360  162.8541 C.ar    1  UNL1        0.0144
      5 C         139.7027  139.8358  162.0279 C.ar    1  UNL1        0.0126
      6 C         138.7190  138.9225  162.6973 C.ar    1  UNL1        0.0578
      7 CL        137.8489  138.0222  161.8711 Cl      1  UNL1       -0.0822
      8 C         138.6052  138.9096  164.1930 C.ar    1  UNL1        0.0129
      9 C         139.4751  139.8098  165.0192 C.ar    1  UNL1        0.0184
     10 C         140.4589  140.7230  164.3497 C.ar    1  UNL1        0.0638
     11 C         142.1092  142.6484  169.2492 C.ar    1  UNL1        0.0141
     12 C         140.7550  142.8526  168.6375 C.ar    1  UNL1        0.0026
     13 C         140.5325  142.5414  167.1871 C.ar    1  UNL1        0.0176
     14 C         141.6642  142.0260  166.3484 C.ar    1  UNL1        0.0640
     15 C         143.0185  141.8218  166.9601 C.ar    1  UNL1        0.0176
     16 C         143.2410  142.1330  168.4105 C.ar    1  UNL1        0.0026
     17 O         141.5474  142.2327  171.7514 O.co2   1  UNL1       -0.5446
     18 C         142.3317  142.9596  170.6996 C.2     1  UNL1        0.0729
     19 O         143.3385  143.9976  171.0981 O.co2   1  UNL1       -0.5446
     20 C         142.0647  142.0717  161.0836 C.3     1  UNL1        0.0266
     21 C         143.5237  142.2354  160.7755 C.3     1  UNL1        0.0218
     22 C         143.9626  142.5712  159.3810 C.3     1  UNL1        0.0725
     23 N         142.9427  142.7435  158.2947 N.3     1  UNL1       -0.2712
     24 C         141.4839  142.5799  158.6028 C.3     1  UNL1        0.0725
     25 C         141.0449  142.2440  159.9973 C.3     1  UNL1        0.0218
     26 C         143.3817  143.0794  156.9002 C.3     1  UNL1        0.0939
     27 C         143.9552  142.0114  156.0168 C.3     1  UNL1        0.1123
     28 N         145.4311  141.9693  155.7524 N.am    1  UNL1       -0.2610
     29 C         146.5104  142.3781  156.7106 C.3     1  UNL1        0.1162
     30 C         147.8333  142.1725  156.0338 C.3     1  UNL1        0.1124
     31 N         147.5714  141.6367  154.6575 N.am    1  UNL1       -0.2870
     32 C         146.0869  141.5111  154.4836 C.2     1  UNL1        0.3041
     33 O         145.3819  141.0145  153.2563 O.2     1  UNL1       -0.2526
     34 H         148.2541  141.4076  153.9861 H       1  UNL1        0.1510
@<TRIPOS>UNITY_ATOM_ATTR
17 1
charge -1
@<TRIPOS>BOND
     1    17    18   ar
     2    18    19   ar
     3    18    11    1
     4    11    12   ar
     5    12    13   ar
     6    13    14   ar
     7    14     1    1
     8     1     2   ar
     9     2     3   ar
    10     3    20    1
    11    20    21    1
    12    21    22    1
    13    22    23    1
    14    23    26    1
    15    26    27    1
    16    27    28    1
    17    28    29    1
    18    29    30    1
    19    30    31    1
    20    31    32   am
    21    32    33    2
    22    23    24    1
    23    24    25    1
    24     3     4   ar
    25     4     5   ar
    26     5     6   ar
    27     6     7    1
    28     6     8   ar
    29     8     9   ar
    30     9    10   ar
    31    14    15   ar
    32    15    16   ar
    33    16    11   ar
    34    10     1   ar
    35    25    20    1
    36    10     4   ar
    37    32    28   am
    38    31    34    1
