@<TRIPOS>MOLECULE
*****
 29 30 0 0 0
SMALL
GASTEIGER

@<TRIPOS>ATOM
      1 C         139.6157  140.9393  166.4294 C.ar    1  UNL1        0.1415
      2 C         139.8521  142.3972  166.1676 C.ar    1  UNL1        0.0401
      3 C         139.1641  143.0743  165.0195 C.ar    1  UNL1        0.0397
      4 C         138.2396  142.2935  164.1332 C.ar    1  UNL1        0.1340
      5 O         137.5516  142.9706  162.9851 O.3     1  UNL1       -0.5055
      6 C         138.0031  140.8356  164.3950 C.ar    1  UNL1        0.0425
      7 C         138.6912  140.1585  165.5431 C.ar    1  UNL1        0.0716
      8 H         137.6993  143.8813  162.8215 H       1  UNL1        0.2922
      9 C         138.4547  138.7005  165.8049 C.2     1  UNL1        0.1764
     10 O         137.3761  138.2747  166.7564 O.2     1  UNL1       -0.2912
     11 C         139.2967  137.6685  165.1152 C.3     1  UNL1        0.0739
     12 C         140.1471  138.0563  163.9420 C.3     1  UNL1        0.0345
     13 C         141.5847  138.4310  164.1489 C.ar    1  UNL1       -0.0217
     14 C         142.2038  138.3065  165.5094 C.ar    1  UNL1       -0.0043
     15 C         143.6415  138.6812  165.7164 C.ar    1  UNL1       -0.0003
     16 C         144.4599  139.1804  164.5628 C.ar    1  UNL1       -0.0000
     17 C         143.8408  139.3050  163.2022 C.ar    1  UNL1       -0.0003
     18 C         142.4032  138.9303  162.9952 C.ar    1  UNL1       -0.0043
     19 O         140.3037  140.2622  167.5775 O.3     1  UNL1       -0.4727
     20 C         139.6266  140.1777  168.9133 C.3     1  UNL1        0.2358
     21 C         140.4240  139.8408  170.1383 C.3     1  UNL1        0.1697
     22 O         139.7273  139.3709  171.3809 O.3     1  UNL1       -0.3793
     23 H         140.3837  139.1978  172.0738 H       1  UNL1        0.2106
     24 C         141.9180  139.9737  170.1208 C.3     1  UNL1        0.1021
     25 N         142.5969  140.9295  171.0565 N.3     1  UNL1       -0.2953
     26 H         142.4717  140.5586  171.9983 H       1  UNL1        0.1233
     27 C         142.1727  142.3677  171.0975 C.3     1  UNL1        0.0686
     28 C         140.4844  143.7282  169.6662 C.3     1  UNL1        0.0015
     29 C         141.8302  143.0852  169.8255 C.3     1  UNL1        0.0171
@<TRIPOS>BOND
     1    28    29    1
     2    29    27    1
     3    27    25    1
     4    25    24    1
     5    24    21    1
     6    21    22    1
     7    21    20    1
     8    20    19    1
     9    19     1    1
    10     1     2   ar
    11     2     3   ar
    12     3     4   ar
    13     4     5    1
    14     4     6   ar
    15     6     7   ar
    16     7     9    1
    17     9    10    2
    18     9    11    1
    19    11    12    1
    20    12    13    1
    21    13    14   ar
    22    14    15   ar
    23    15    16   ar
    24    16    17   ar
    25    17    18   ar
    26     7     1   ar
    27    18    13   ar
    28    25    26    1
    29    22    23    1
    30     5     8    1
@<TRIPOS>MOLECULE
*****
 29 30 0 0 0
SMALL
GASTEIGER

@<TRIPOS>ATOM
      1 C         140.2189  141.2702  164.8480 C.ar    1  UNL1        0.1415
      2 C         140.8532  141.8607  166.0722 C.ar    1  UNL1        0.0401
      3 C         140.4853  141.3433  167.4313 C.ar    1  UNL1        0.0397
      4 C         139.4832  140.2354  167.5660 C.ar    1  UNL1        0.1340
      5 O         139.1153  139.7180  168.9251 O.3     1  UNL1       -0.5055
      6 C         138.8489  139.6449  166.3418 C.ar    1  UNL1        0.0425
      7 C         139.2167  140.1623  164.9827 C.ar    1  UNL1        0.0716
      8 H         139.5116  140.0869  169.6899 H       1  UNL1        0.2922
      9 C         138.5823  139.5717  163.7584 C.2     1  UNL1        0.1764
     10 O         137.6893  140.4137  162.8961 O.2     1  UNL1       -0.2912
     11 C         138.8410  138.1392  163.3965 C.3     1  UNL1        0.0739
     12 C         140.1712  137.7366  162.8324 C.3     1  UNL1        0.0345
     13 C         141.4363  138.1735  163.5096 C.ar    1  UNL1       -0.0217
     14 C         142.4468  138.9880  162.7576 C.ar    1  UNL1       -0.0043
     15 C         143.7119  139.4249  163.4348 C.ar    1  UNL1       -0.0003
     16 C         143.9666  139.0473  164.8639 C.ar    1  UNL1       -0.0000
     17 C         142.9561  138.2328  165.6160 C.ar    1  UNL1       -0.0003
     18 C         141.6909  137.7959  164.9388 C.ar    1  UNL1       -0.0043
     19 O         140.5867  141.7876  163.4889 O.3     1  UNL1       -0.4727
     20 C         141.2449  143.1282  163.3497 C.3     1  UNL1        0.2358
     21 C         140.7623  144.0963  162.3104 C.3     1  UNL1        0.1697
     22 O         141.4359  145.4275  162.1553 O.3     1  UNL1       -0.3793
     23 H         141.0043  145.9274  161.4448 H       1  UNL1        0.2106
     24 C         139.6062  143.7331  161.4264 C.3     1  UNL1        0.1021
     25 N         138.2763  143.3946  162.0320 N.3     1  UNL1       -0.2953
     26 H         137.6061  143.3496  161.2645 H       1  UNL1        0.1233
     27 C         137.6785  144.2895  163.0769 C.3     1  UNL1        0.0686
     28 C         138.6223  144.8413  165.4338 C.3     1  UNL1        0.0015
     29 C         137.8253  143.9479  164.5301 C.3     1  UNL1        0.0171
@<TRIPOS>BOND
     1    28    29    1
     2    29    27    1
     3    27    25    1
     4    25    24    1
     5    24    21    1
     6    21    22    1
     7    21    20    1
     8    20    19    1
     9    19     1    1
    10     1     2   ar
    11     2     3   ar
    12     3     4   ar
    13     4     5    1
    14     4     6   ar
    15     6     7   ar
    16     7     9    1
    17     9    10    2
    18     9    11    1
    19    11    12    1
    20    12    13    1
    21    13    14   ar
    22    14    15   ar
    23    15    16   ar
    24    16    17   ar
    25    17    18   ar
    26     7     1   ar
    27    18    13   ar
    28    25    26    1
    29    22    23    1
    30     5     8    1
@<TRIPOS>MOLECULE
*****
 29 30 0 0 0
SMALL
GASTEIGER

@<TRIPOS>ATOM
      1 C         139.6983  139.4401  164.1888 C.ar    1  UNL1        0.1415
      2 C         139.6468  137.9432  164.2702 C.ar    1  UNL1        0.0401
      3 C         138.7823  137.2773  165.2994 C.ar    1  UNL1        0.0397
      4 C         137.9692  138.1083  166.2472 C.ar    1  UNL1        0.1340
      5 O         137.1047  137.4424  167.2764 O.3     1  UNL1       -0.5055
      6 C         138.0207  139.6052  166.1658 C.ar    1  UNL1        0.0425
      7 C         138.8852  140.2711  165.1366 C.ar    1  UNL1        0.0716
      8 H         137.0726  136.5074  167.3272 H       1  UNL1        0.2922
      9 C         138.9366  141.7681  165.0553 C.2     1  UNL1        0.1764
     10 O         137.7517  142.5325  164.5439 O.2     1  UNL1       -0.2912
     11 C         140.1730  142.5005  165.4853 C.3     1  UNL1        0.0739
     12 C         141.2446  141.7796  166.2481 C.3     1  UNL1        0.0345
     13 C         141.6201  142.2360  167.6268 C.ar    1  UNL1       -0.0217
     14 C         140.6098  142.9369  168.4859 C.ar    1  UNL1       -0.0043
     15 C         140.9853  143.3933  169.8646 C.ar    1  UNL1       -0.0003
     16 C         142.3710  143.1488  170.3842 C.ar    1  UNL1       -0.0000
     17 C         143.3813  142.4478  169.5251 C.ar    1  UNL1       -0.0003
     18 C         143.0059  141.9914  168.1464 C.ar    1  UNL1       -0.0043
     19 O         140.5628  140.1060  163.1597 O.3     1  UNL1       -0.4727
     20 C         140.9275  139.3764  161.9009 C.3     1  UNL1        0.2358
     21 C         142.1977  138.5812  161.8361 C.3     1  UNL1        0.1697
     22 O         142.1420  137.0852  161.7416 O.3     1  UNL1       -0.3793
     23 H         143.0438  136.7295  161.7089 H       1  UNL1        0.2106
     24 C         143.5236  139.2819  161.8657 C.3     1  UNL1        0.1021
     25 N         144.4495  139.0861  163.0295 N.3     1  UNL1       -0.2953
     26 H         144.6687  138.0906  163.0671 H       1  UNL1        0.1233
     27 C         144.0160  139.4864  164.4085 C.3     1  UNL1        0.0686
     28 C         143.2552  138.6476  166.7468 C.3     1  UNL1        0.0015
     29 C         143.2220  138.5330  165.2515 C.3     1  UNL1        0.0171
@<TRIPOS>BOND
     1    28    29    1
     2    29    27    1
     3    27    25    1
     4    25    24    1
     5    24    21    1
     6    21    22    1
     7    21    20    1
     8    20    19    1
     9    19     1    1
    10     1     2   ar
    11     2     3   ar
    12     3     4   ar
    13     4     5    1
    14     4     6   ar
    15     6     7   ar
    16     7     9    1
    17     9    10    2
    18     9    11    1
    19    11    12    1
    20    12    13    1
    21    13    14   ar
    22    14    15   ar
    23    15    16   ar
    24    16    17   ar
    25    17    18   ar
    26     7     1   ar
    27    18    13   ar
    28    25    26    1
    29    22    23    1
    30     5     8    1
@<TRIPOS>MOLECULE
*****
 29 30 0 0 0
SMALL
GASTEIGER

@<TRIPOS>ATOM
      1 C         140.5247  140.7967  169.3444 C.ar    1  UNL1        0.1415
      2 C         139.9326  142.0992  169.7948 C.ar    1  UNL1        0.0401
      3 C         140.8210  143.1792  170.3373 C.ar    1  UNL1        0.0397
      4 C         142.3015  142.9566  170.4295 C.ar    1  UNL1        0.1340
      5 O         143.1899  144.0366  170.9720 O.3     1  UNL1       -0.5055
      6 C         142.8936  141.6541  169.9791 C.ar    1  UNL1        0.0425
      7 C         142.0052  140.5742  169.4366 C.ar    1  UNL1        0.0716
      8 H         142.8201  144.8503  171.2533 H       1  UNL1        0.2922
      9 C         142.5973  139.2716  168.9862 C.2     1  UNL1        0.1764
     10 O         142.9113  138.2032  169.9910 O.2     1  UNL1       -0.2912
     11 C         142.8755  139.0376  167.5309 C.3     1  UNL1        0.0739
     12 C         142.4047  140.0289  166.5084 C.3     1  UNL1        0.0345
     13 C         143.3988  140.7345  165.6345 C.ar    1  UNL1       -0.0217
     14 C         143.5918  142.2165  165.7632 C.ar    1  UNL1       -0.0043
     15 C         144.5859  142.9221  164.8892 C.ar    1  UNL1       -0.0003
     16 C         145.3871  142.1458  163.8866 C.ar    1  UNL1       -0.0000
     17 C         145.1942  140.6637  163.7578 C.ar    1  UNL1       -0.0003
     18 C         144.2000  139.9581  164.6318 C.ar    1  UNL1       -0.0043
     19 O         139.6362  139.7167  168.8019 O.3     1  UNL1       -0.4727
     20 C         139.0385  139.8544  167.4330 C.3     1  UNL1        0.2358
     21 C         138.2332  138.7313  166.8499 C.3     1  UNL1        0.1697
     22 O         137.1628  138.0722  167.6682 O.3     1  UNL1       -0.3793
     23 H         136.7419  137.3714  167.1460 H       1  UNL1        0.2106
     24 C         138.4983  138.2673  165.4482 C.3     1  UNL1        0.1021
     25 N         138.9700  139.2435  164.4117 N.3     1  UNL1       -0.2953
     26 H         139.8679  139.6045  164.7341 H       1  UNL1        0.1233
     27 C         138.1255  140.4328  164.0621 C.3     1  UNL1        0.0686
     28 C         137.6850  142.9811  164.3118 C.3     1  UNL1        0.0015
     29 C         138.6325  141.8183  164.3328 C.3     1  UNL1        0.0171
@<TRIPOS>BOND
     1    28    29    1
     2    29    27    1
     3    27    25    1
     4    25    24    1
     5    24    21    1
     6    21    22    1
     7    21    20    1
     8    20    19    1
     9    19     1    1
    10     1     2   ar
    11     2     3   ar
    12     3     4   ar
    13     4     5    1
    14     4     6   ar
    15     6     7   ar
    16     7     9    1
    17     9    10    2
    18     9    11    1
    19    11    12    1
    20    12    13    1
    21    13    14   ar
    22    14    15   ar
    23    15    16   ar
    24    16    17   ar
    25    17    18   ar
    26     7     1   ar
    27    18    13   ar
    28    25    26    1
    29    22    23    1
    30     5     8    1
@<TRIPOS>MOLECULE
*****
 29 30 0 0 0
SMALL
GASTEIGER

@<TRIPOS>ATOM
      1 C         139.3219  140.5430  164.6556 C.ar    1  UNL1        0.1415
      2 C         139.7417  140.4782  163.2171 C.ar    1  UNL1        0.0401
      3 C         140.3274  139.2134  162.6629 C.ar    1  UNL1        0.0397
      4 C         140.4934  138.0133  163.5474 C.ar    1  UNL1        0.1340
      5 O         141.0791  136.7484  162.9932 O.3     1  UNL1       -0.5055
      6 C         140.0736  138.0781  164.9859 C.ar    1  UNL1        0.0425
      7 C         139.4879  139.3429  165.5401 C.ar    1  UNL1        0.0716
      8 H         141.3413  136.7080  162.0946 H       1  UNL1        0.2922
      9 C         139.0681  139.4077  166.9787 C.2     1  UNL1        0.1764
     10 O         137.8522  138.6600  167.4396 O.2     1  UNL1       -0.2912
     11 C         139.8643  140.2202  167.9565 C.3     1  UNL1        0.0739
     12 C         141.3287  139.9512  168.1381 C.3     1  UNL1        0.0345
     13 C         142.2691  140.1064  166.9799 C.ar    1  UNL1       -0.0217
     14 C         142.4335  141.4440  166.3213 C.ar    1  UNL1       -0.0043
     15 C         143.3739  141.5992  165.1631 C.ar    1  UNL1       -0.0003
     16 C         144.1499  140.4168  164.6633 C.ar    1  UNL1       -0.0000
     17 C         143.9855  139.0791  165.3219 C.ar    1  UNL1       -0.0003
     18 C         143.0451  138.9239  166.4801 C.ar    1  UNL1       -0.0043
     19 O         138.7362  141.8079  165.2098 O.3     1  UNL1       -0.4727
     20 C         137.7415  142.5897  164.4040 C.3     1  UNL1        0.2358
     21 C         138.1050  143.9451  163.8743 C.3     1  UNL1        0.1697
     22 O         137.4105  144.4868  162.6601 O.3     1  UNL1       -0.3793
     23 H         137.7611  145.3671  162.4529 H       1  UNL1        0.2106
     24 C         139.1630  144.7589  164.5587 C.3     1  UNL1        0.1021
     25 N         140.6013  144.3413  164.4755 N.3     1  UNL1       -0.2953
     26 H         140.9518  144.3003  165.4325 H       1  UNL1        0.1233
     27 C         141.5779  145.1670  163.6917 C.3     1  UNL1        0.0686
     28 C         144.0093  144.5603  163.0058 C.3     1  UNL1        0.0015
     29 C         142.5331  144.5018  162.7457 C.3     1  UNL1        0.0171
@<TRIPOS>BOND
     1    28    29    1
     2    29    27    1
     3    27    25    1
     4    25    24    1
     5    24    21    1
     6    21    22    1
     7    21    20    1
     8    20    19    1
     9    19     1    1
    10     1     2   ar
    11     2     3   ar
    12     3     4   ar
    13     4     5    1
    14     4     6   ar
    15     6     7   ar
    16     7     9    1
    17     9    10    2
    18     9    11    1
    19    11    12    1
    20    12    13    1
    21    13    14   ar
    22    14    15   ar
    23    15    16   ar
    24    16    17   ar
    25    17    18   ar
    26     7     1   ar
    27    18    13   ar
    28    25    26    1
    29    22    23    1
    30     5     8    1
@<TRIPOS>MOLECULE
*****
 29 30 0 0 0
SMALL
GASTEIGER

@<TRIPOS>ATOM
      1 C         141.6002  140.8745  162.0685 C.ar    1  UNL1        0.1415
      2 C         142.0206  142.2654  162.4408 C.ar    1  UNL1        0.0401
      3 C         143.4700  142.5741  162.6729 C.ar    1  UNL1        0.0397
      4 C         144.4991  141.4918  162.5327 C.ar    1  UNL1        0.1340
      5 O         145.9485  141.8005  162.7649 O.3     1  UNL1       -0.5055
      6 C         144.0787  140.1009  162.1605 C.ar    1  UNL1        0.0425
      7 C         142.6293  139.7923  161.9283 C.ar    1  UNL1        0.0716
      8 H         146.2111  142.6693  162.9974 H       1  UNL1        0.2922
      9 C         142.2089  138.4013  161.5560 C.2     1  UNL1        0.1764
     10 O         142.5804  137.8389  160.2160 O.2     1  UNL1       -0.2912
     11 C         141.4172  137.5727  162.5238 C.3     1  UNL1        0.0739
     12 C         141.7175  137.6426  163.9918 C.3     1  UNL1        0.0345
     13 C         140.7117  138.2320  164.9358 C.ar    1  UNL1       -0.0217
     14 C         141.0928  139.3887  165.8114 C.ar    1  UNL1       -0.0043
     15 C         140.0871  139.9780  166.7554 C.ar    1  UNL1       -0.0003
     16 C         138.7003  139.4106  166.8239 C.ar    1  UNL1       -0.0000
     17 C         138.3191  138.2538  165.9483 C.ar    1  UNL1       -0.0003
     18 C         139.3248  137.6645  165.0042 C.ar    1  UNL1       -0.0043
     19 O         140.1508  140.5659  161.8364 O.3     1  UNL1       -0.4727
     20 C         139.1460  140.8250  162.9195 C.3     1  UNL1        0.2358
     21 C         137.9330  141.6596  162.6332 C.3     1  UNL1        0.1697
     22 O         136.5858  141.2174  163.1228 O.3     1  UNL1       -0.3793
     23 H         135.9157  141.8653  162.8544 H       1  UNL1        0.2106
     24 C         138.0671  142.9364  161.8574 C.3     1  UNL1        0.1021
     25 N         137.7562  144.2489  162.5136 N.3     1  UNL1       -0.2953
     26 H         138.3889  144.9383  162.1075 H       1  UNL1        0.1233
     27 C         137.8641  144.3868  164.0033 C.3     1  UNL1        0.0686
     28 C         139.7641  143.5101  165.5434 C.3     1  UNL1        0.0015
     29 C         139.2075  144.5738  164.6439 C.3     1  UNL1        0.0171
@<TRIPOS>BOND
     1    28    29    1
     2    29    27    1
     3    27    25    1
     4    25    24    1
     5    24    21    1
     6    21    22    1
     7    21    20    1
     8    20    19    1
     9    19     1    1
    10     1     2   ar
    11     2     3   ar
    12     3     4   ar
    13     4     5    1
    14     4     6   ar
    15     6     7   ar
    16     7     9    1
    17     9    10    2
    18     9    11    1
    19    11    12    1
    20    12    13    1
    21    13    14   ar
    22    14    15   ar
    23    15    16   ar
    24    16    17   ar
    25    17    18   ar
    26     7     1   ar
    27    18    13   ar
    28    25    26    1
    29    22    23    1
    30     5     8    1
@<TRIPOS>MOLECULE
*****
 29 30 0 0 0
SMALL
GASTEIGER

@<TRIPOS>ATOM
      1 C         140.9099  142.6567  166.9110 C.ar    1  UNL1        0.1415
      2 C         140.3125  142.9828  168.2476 C.ar    1  UNL1        0.0401
      3 C         141.1711  142.9648  169.4775 C.ar    1  UNL1        0.0397
      4 C         142.6271  142.6206  169.3706 C.ar    1  UNL1        0.1340
      5 O         143.4857  142.6026  170.6005 O.3     1  UNL1       -0.5055
      6 C         143.2245  142.2945  168.0340 C.ar    1  UNL1        0.0425
      7 C         142.3659  142.3125  166.8042 C.ar    1  UNL1        0.0716
      8 H         143.1125  142.8063  171.4354 H       1  UNL1        0.2922
      9 C         142.9634  141.9864  165.4675 C.2     1  UNL1        0.1764
     10 O         143.1445  143.0670  164.4431 O.2     1  UNL1       -0.2912
     11 C         143.3798  140.5795  165.1552 C.3     1  UNL1        0.0739
     12 C         142.6810  139.4270  165.8134 C.3     1  UNL1        0.0345
     13 C         141.4452  138.8458  165.1928 C.ar    1  UNL1       -0.0217
     14 C         140.1034  139.1014  165.8126 C.ar    1  UNL1       -0.0043
     15 C         138.8676  138.5203  165.1920 C.ar    1  UNL1       -0.0003
     16 C         138.9736  137.6834  163.9517 C.ar    1  UNL1       -0.0000
     17 C         140.3155  137.4277  163.3319 C.ar    1  UNL1       -0.0003
     18 C         141.5513  138.0089  163.9524 C.ar    1  UNL1       -0.0043
     19 O         140.0513  142.6747  165.6812 O.3     1  UNL1       -0.4727
     20 C         139.3270  143.9288  165.2905 C.3     1  UNL1        0.2358
     21 C         139.7847  144.7196  164.1009 C.3     1  UNL1        0.1697
     22 O         141.1580  145.3228  164.0845 O.3     1  UNL1       -0.3793
     23 H         141.2928  145.7972  163.2493 H       1  UNL1        0.2106
     24 C         138.8691  144.9072  162.9276 C.3     1  UNL1        0.1021
     25 N         137.7200  143.9667  162.7151 N.3     1  UNL1       -0.2953
     26 H         137.3776  143.7065  163.6400 H       1  UNL1        0.1233
     27 C         137.9263  142.6903  161.9548 C.3     1  UNL1        0.0686
     28 C         139.8819  141.0821  162.5375 C.3     1  UNL1        0.0015
     29 C         138.4383  141.4705  162.6618 C.3     1  UNL1        0.0171
@<TRIPOS>BOND
     1    28    29    1
     2    29    27    1
     3    27    25    1
     4    25    24    1
     5    24    21    1
     6    21    22    1
     7    21    20    1
     8    20    19    1
     9    19     1    1
    10     1     2   ar
    11     2     3   ar
    12     3     4   ar
    13     4     5    1
    14     4     6   ar
    15     6     7   ar
    16     7     9    1
    17     9    10    2
    18     9    11    1
    19    11    12    1
    20    12    13    1
    21    13    14   ar
    22    14    15   ar
    23    15    16   ar
    24    16    17   ar
    25    17    18   ar
    26     7     1   ar
    27    18    13   ar
    28    25    26    1
    29    22    23    1
    30     5     8    1
@<TRIPOS>MOLECULE
*****
 29 30 0 0 0
SMALL
GASTEIGER

@<TRIPOS>ATOM
      1 C         143.0673  141.4112  166.9434 C.ar    1  UNL1        0.1415
      2 C         143.4608  142.3697  168.0280 C.ar    1  UNL1        0.0401
      3 C         143.3379  141.9653  169.4673 C.ar    1  UNL1        0.0397
      4 C         142.8214  140.6024  169.8219 C.ar    1  UNL1        0.1340
      5 O         142.6985  140.1980  171.2611 O.3     1  UNL1       -0.5055
      6 C         142.4279  139.6439  168.7373 C.ar    1  UNL1        0.0425
      7 C         142.5508  140.0483  167.2981 C.ar    1  UNL1        0.0716
      8 H         142.9444  140.7967  171.9386 H       1  UNL1        0.2922
      9 C         142.1573  139.0897  166.2134 C.2     1  UNL1        0.1764
     10 O         143.1242  138.0393  165.7537 O.2     1  UNL1       -0.2912
     11 C         140.7967  139.1817  165.5886 C.3     1  UNL1        0.0739
     12 C         139.7179  139.9829  166.2551 C.3     1  UNL1        0.0345
     13 C         139.2229  141.2486  165.6203 C.ar    1  UNL1       -0.0217
     14 C         139.8445  142.5639  165.9858 C.ar    1  UNL1       -0.0043
     15 C         139.3494  143.8296  165.3510 C.ar    1  UNL1       -0.0003
     16 C         138.2328  143.7800  164.3508 C.ar    1  UNL1       -0.0000
     17 C         137.6111  142.4647  163.9852 C.ar    1  UNL1       -0.0003
     18 C         138.1062  141.1990  164.6200 C.ar    1  UNL1       -0.0043
     19 O         143.1902  141.8156  165.5042 O.3     1  UNL1       -0.4727
     20 C         144.4704  141.5689  164.7626 C.3     1  UNL1        0.2358
     21 C         144.8214  142.4105  163.5716 C.3     1  UNL1        0.1697
     22 O         145.9273  141.9847  162.6520 O.3     1  UNL1       -0.3793
     23 H         146.0235  142.6354  161.9391 H       1  UNL1        0.2106
     24 C         144.0665  143.6781  163.3003 C.3     1  UNL1        0.1021
     25 N         142.5816  143.7256  163.5073 N.3     1  UNL1       -0.2953
     26 H         142.3929  143.2585  164.3943 H       1  UNL1        0.1233
     27 C         141.6628  143.1138  162.4917 C.3     1  UNL1        0.0686
     28 C         140.2484  141.0908  161.6812 C.3     1  UNL1        0.0015
     29 C         141.2955  141.6628  162.5903 C.3     1  UNL1        0.0171
@<TRIPOS>BOND
     1    28    29    1
     2    29    27    1
     3    27    25    1
     4    25    24    1
     5    24    21    1
     6    21    22    1
     7    21    20    1
     8    20    19    1
     9    19     1    1
    10     1     2   ar
    11     2     3   ar
    12     3     4   ar
    13     4     5    1
    14     4     6   ar
    15     6     7   ar
    16     7     9    1
    17     9    10    2
    18     9    11    1
    19    11    12    1
    20    12    13    1
    21    13    14   ar
    22    14    15   ar
    23    15    16   ar
    24    16    17   ar
    25    17    18   ar
    26     7     1   ar
    27    18    13   ar
    28    25    26    1
    29    22    23    1
    30     5     8    1
@<TRIPOS>MOLECULE
*****
 29 30 0 0 0
SMALL
GASTEIGER

@<TRIPOS>ATOM
      1 C         140.3561  142.3222  167.6461 C.ar    1  UNL1        0.1415
      2 C         140.5620  143.2185  168.8311 C.ar    1  UNL1        0.0401
      3 C         140.5925  142.6384  170.2140 C.ar    1  UNL1        0.0397
      4 C         140.4170  141.1619  170.4120 C.ar    1  UNL1        0.1340
      5 O         140.4474  140.5818  171.7949 O.3     1  UNL1       -0.5055
      6 C         140.2111  140.2656  169.2270 C.ar    1  UNL1        0.0425
      7 C         140.1806  140.8458  167.8441 C.ar    1  UNL1        0.0716
      8 H         140.5760  141.1417  172.5351 H       1  UNL1        0.2922
      9 C         139.9747  139.9494  166.6591 C.2     1  UNL1        0.1764
     10 O         138.5871  139.6669  166.1646 O.2     1  UNL1       -0.2912
     11 C         141.1564  139.3356  165.9686 C.3     1  UNL1        0.0739
     12 C         142.5457  139.6453  166.4418 C.3     1  UNL1        0.0345
     13 C         143.4649  140.4641  165.5847 C.ar    1  UNL1       -0.0217
     14 C         144.3102  139.7964  164.5409 C.ar    1  UNL1       -0.0043
     15 C         145.2294  140.6152  163.6838 C.ar    1  UNL1       -0.0003
     16 C         145.3033  142.1017  163.8705 C.ar    1  UNL1       -0.0000
     17 C         144.4580  142.7694  164.9144 C.ar    1  UNL1       -0.0003
     18 C         143.5388  141.9506  165.7715 C.ar    1  UNL1       -0.0043
     19 O         140.3257  142.9024  166.2632 O.3     1  UNL1       -0.4727
     20 C         139.1757  143.7663  165.8374 C.3     1  UNL1        0.2358
     21 C         138.2995  143.3400  164.6970 C.3     1  UNL1        0.1697
     22 O         137.6924  141.9684  164.6897 O.3     1  UNL1       -0.3793
     23 H         137.1583  141.8555  163.8879 H       1  UNL1        0.2106
     24 C         138.0302  144.2854  163.5640 C.3     1  UNL1        0.1021
     25 N         139.1234  144.6248  162.5945 N.3     1  UNL1       -0.2953
     26 H         138.6791  144.7659  161.6873 H       1  UNL1        0.1233
     27 C         140.2572  143.6670  162.3772 C.3     1  UNL1        0.0686
     28 C         141.8355  145.2222  163.7338 C.3     1  UNL1        0.0015
     29 C         141.6237  143.9904  162.9044 C.3     1  UNL1        0.0171
@<TRIPOS>BOND
     1    28    29    1
     2    29    27    1
     3    27    25    1
     4    25    24    1
     5    24    21    1
     6    21    22    1
     7    21    20    1
     8    20    19    1
     9    19     1    1
    10     1     2   ar
    11     2     3   ar
    12     3     4   ar
    13     4     5    1
    14     4     6   ar
    15     6     7   ar
    16     7     9    1
    17     9    10    2
    18     9    11    1
    19    11    12    1
    20    12    13    1
    21    13    14   ar
    22    14    15   ar
    23    15    16   ar
    24    16    17   ar
    25    17    18   ar
    26     7     1   ar
    27    18    13   ar
    28    25    26    1
    29    22    23    1
    30     5     8    1
