@<TRIPOS>MOLECULE
*****
 36 38 0 0 0
SMALL
GASTEIGER

@<TRIPOS>ATOM
      1 C         139.1347  140.5548  164.3666 C.ar    1  UNL1       -0.0022
      2 C         138.3822  139.3779  164.9128 C.ar    1  UNL1        0.0012
      3 C         138.4320  139.0713  166.3803 C.ar    1  UNL1        0.0712
      4 C         139.2344  139.9417  167.3015 C.ar    1  UNL1        0.0038
      5 C         139.9870  141.1186  166.7552 C.ar    1  UNL1       -0.0002
      6 C         139.9371  141.4252  165.2878 C.ar    1  UNL1        0.0005
      7 C         140.6897  142.6022  164.7414 C.ar    1  UNL1        0.0334
      8 C         142.1730  142.5145  164.5366 C.ar    1  UNL1       -0.0009
      9 C         142.9256  143.6914  163.9903 C.ar    1  UNL1       -0.0164
     10 C         142.1948  144.9561  163.6488 C.ar    1  UNL1       -0.0008
     11 C         140.7114  145.0438  163.8536 C.ar    1  UNL1        0.0366
     12 C         139.9588  143.8668  164.3999 C.ar    1  UNL1        0.1386
     13 O         138.4755  143.9545  164.6048 O.3     1  UNL1       -0.4714
     14 C         137.5655  144.1408  163.4269 C.3     1  UNL1        0.2525
     15 C         144.4089  143.6037  163.7855 C.3     1  UNL1        0.0679
     16 C         144.9632  142.7859  162.6569 C.2     1  UNL1        0.0547
     17 O         146.1017  141.8410  162.9038 O.co2   1  UNL1       -0.5488
     18 O         144.3789  142.9129  161.2812 O.co2   1  UNL1       -0.5488
     19 C         137.6795  137.8943  166.9266 C.3     1  UNL1        0.4186
     20 F         136.9269  136.7174  167.4729 F       1  UNL1       -0.1659
     21 F         137.1692  138.7434  168.0529 F       1  UNL1       -0.1659
     22 F         138.1898  137.0452  165.8003 F       1  UNL1       -0.1659
     23 C         139.0849  140.8615  162.8990 C.3     1  UNL1        0.1234
     24 N         140.1347  140.3086  161.9813 N.am    1  UNL1       -0.2419
     25 C         140.0777  138.8712  161.5561 C.2     1  UNL1        0.4054
     26 O         138.9709  137.9867  162.0487 O.2     1  UNL1       -0.2262
     27 C         140.9295  142.5635  160.9644 C.3     1  UNL1        0.0234
     28 C         141.2415  141.1931  161.4887 C.3     1  UNL1        0.0971
     29 O         141.1275  138.3184  160.6383 O.3     1  UNL1       -0.4295
     30 C         142.4356  137.8413  161.1962 C.3     1  UNL1        0.2367
     31 C         142.8208  138.1860  162.6043 C.ar    1  UNL1        0.0213
     32 C         141.9658  137.7295  163.7490 C.ar    1  UNL1       -0.0007
     33 C         142.3510  138.0742  165.1571 C.ar    1  UNL1       -0.0002
     34 C         143.5914  138.8755  165.4205 C.ar    1  UNL1       -0.0000
     35 C         144.4464  139.3321  164.2758 C.ar    1  UNL1       -0.0002
     36 C         144.0612  138.9874  162.8677 C.ar    1  UNL1       -0.0007
@<TRIPOS>UNITY_ATOM_ATTR
17 1
charge -1
@<TRIPOS>BOND
     1    27    28    1
     2    28    24    1
     3    24    23    1
     4    23     1    1
     5     1     2   ar
     6     2     3   ar
     7     3    19    1
     8    19    20    1
     9    19    21    1
    10    19    22    1
    11     3     4   ar
    12     4     5   ar
    13     5     6   ar
    14     6     7    1
    15     7     8   ar
    16     8     9   ar
    17     9    15    1
    18    15    16    1
    19    16    17   ar
    20    16    18   ar
    21     9    10   ar
    22    10    11   ar
    23    11    12   ar
    24    12    13    1
    25    13    14    1
    26    24    25   am
    27    25    26    2
    28    25    29    1
    29    29    30    1
    30    30    31    1
    31    31    32   ar
    32    32    33   ar
    33    33    34   ar
    34    34    35   ar
    35    35    36   ar
    36     6     1   ar
    37    12     7   ar
    38    36    31   ar
@<TRIPOS>MOLECULE
*****
 36 38 0 0 0
SMALL
GASTEIGER

@<TRIPOS>ATOM
      1 C         141.1931  142.5488  166.3763 C.ar    1  UNL1       -0.0022
      2 C         140.4761  143.0635  167.5891 C.ar    1  UNL1        0.0012
      3 C         140.6383  142.3675  168.9079 C.ar    1  UNL1        0.0712
      4 C         141.5174  141.1567  169.0138 C.ar    1  UNL1        0.0038
      5 C         142.2343  140.6420  167.8010 C.ar    1  UNL1       -0.0002
      6 C         142.0722  141.3381  166.4822 C.ar    1  UNL1        0.0005
      7 C         142.7892  140.8233  165.2693 C.ar    1  UNL1        0.0334
      8 C         142.2560  139.6302  164.5330 C.ar    1  UNL1       -0.0009
      9 C         142.9729  139.1155  163.3201 C.ar    1  UNL1       -0.0164
     10 C         144.2231  139.7939  162.8436 C.ar    1  UNL1       -0.0008
     11 C         144.7562  140.9870  163.5799 C.ar    1  UNL1        0.0366
     12 C         144.0392  141.5017  164.7928 C.ar    1  UNL1        0.1386
     13 O         144.5724  142.6949  165.5292 O.3     1  UNL1       -0.4714
     14 C         144.4001  144.0696  164.9542 C.3     1  UNL1        0.2525
     15 C         142.4398  137.9224  162.5838 C.3     1  UNL1        0.0679
     16 C         142.2719  137.9738  161.0941 C.2     1  UNL1        0.0547
     17 O         141.2308  138.8670  160.4871 O.co2   1  UNL1       -0.5488
     18 O         143.1451  137.1322  160.2114 O.co2   1  UNL1       -0.5488
     19 C         139.9213  142.8822  170.1208 C.3     1  UNL1        0.4186
     20 F         139.2044  143.3970  171.3336 F       1  UNL1       -0.1659
     21 F         140.7123  144.1546  170.0484 F       1  UNL1       -0.1659
     22 F         139.1303  141.6098  170.1932 F       1  UNL1       -0.1659
     23 C         141.0309  143.2449  165.0574 C.3     1  UNL1        0.1234
     24 N         139.7645  143.0768  164.2714 N.am    1  UNL1       -0.2419
     25 C         139.7928  142.3792  162.9437 C.2     1  UNL1        0.4054
     26 O         141.0875  141.8498  162.4021 O.2     1  UNL1       -0.2262
     27 C         138.4213  144.9655  165.4454 C.3     1  UNL1        0.0234
     28 C         138.4698  143.6062  164.8130 C.3     1  UNL1        0.0971
     29 O         138.5263  142.2111  162.1577 O.3     1  UNL1       -0.4295
     30 C         137.5968  141.0753  162.4670 C.3     1  UNL1        0.2367
     31 C         138.0643  139.9351  163.3223 C.ar    1  UNL1        0.0213
     32 C         138.5242  138.6581  162.6839 C.ar    1  UNL1       -0.0007
     33 C         138.9918  137.5180  163.5393 C.ar    1  UNL1       -0.0002
     34 C         138.9994  137.6549  165.0329 C.ar    1  UNL1       -0.0000
     35 C         138.5395  138.9320  165.6713 C.ar    1  UNL1       -0.0002
     36 C         138.0719  140.0721  164.8160 C.ar    1  UNL1       -0.0007
@<TRIPOS>UNITY_ATOM_ATTR
17 1
charge -1
@<TRIPOS>BOND
     1    27    28    1
     2    28    24    1
     3    24    23    1
     4    23     1    1
     5     1     2   ar
     6     2     3   ar
     7     3    19    1
     8    19    20    1
     9    19    21    1
    10    19    22    1
    11     3     4   ar
    12     4     5   ar
    13     5     6   ar
    14     6     7    1
    15     7     8   ar
    16     8     9   ar
    17     9    15    1
    18    15    16    1
    19    16    17   ar
    20    16    18   ar
    21     9    10   ar
    22    10    11   ar
    23    11    12   ar
    24    12    13    1
    25    13    14    1
    26    24    25   am
    27    25    26    2
    28    25    29    1
    29    29    30    1
    30    30    31    1
    31    31    32   ar
    32    32    33   ar
    33    33    34   ar
    34    34    35   ar
    35    35    36   ar
    36     6     1   ar
    37    12     7   ar
    38    36    31   ar
@<TRIPOS>MOLECULE
*****
 36 38 0 0 0
SMALL
GASTEIGER

@<TRIPOS>ATOM
      1 C         140.0819  140.8623  163.3288 C.ar    1  UNL1       -0.0022
      2 C         139.8828  141.1921  161.8792 C.ar    1  UNL1        0.0012
      3 C         138.8668  142.2194  161.4764 C.ar    1  UNL1        0.0712
      4 C         138.0499  142.9170  162.5233 C.ar    1  UNL1        0.0038
      5 C         138.2490  142.5872  163.9730 C.ar    1  UNL1       -0.0002
      6 C         139.2650  141.5599  164.3757 C.ar    1  UNL1        0.0005
      7 C         139.4641  141.2302  165.8255 C.ar    1  UNL1        0.0334
      8 C         140.2032  142.1837  166.7169 C.ar    1  UNL1       -0.0009
      9 C         140.4023  141.8540  168.1665 C.ar    1  UNL1       -0.0164
     10 C         139.8624  140.5707  168.7249 C.ar    1  UNL1       -0.0008
     11 C         139.1233  139.6171  167.8335 C.ar    1  UNL1        0.0366
     12 C         138.9242  139.9469  166.3838 C.ar    1  UNL1        0.1386
     13 O         138.1851  138.9934  165.4924 O.3     1  UNL1       -0.4714
     14 C         138.6989  137.5976  165.2975 C.3     1  UNL1        0.2525
     15 C         141.1414  142.8075  169.0579 C.3     1  UNL1        0.0679
     16 C         140.4518  143.4123  170.2448 C.2     1  UNL1        0.0547
     17 O         140.0543  144.8586  170.2248 O.co2   1  UNL1       -0.5488
     18 O         140.1597  142.5708  171.4517 O.co2   1  UNL1       -0.5488
     19 C         138.6677  142.5491  160.0266 C.3     1  UNL1        0.4186
     20 F         138.4686  142.8789  158.5770 F       1  UNL1       -0.1659
     21 F         139.3610  143.8636  160.2305 F       1  UNL1       -0.1659
     22 F         137.9744  141.2347  159.8228 F       1  UNL1       -0.1659
     23 C         141.0980  139.8350  163.7317 C.3     1  UNL1        0.1234
     24 N         142.5418  140.2196  163.8636 N.am    1  UNL1       -0.2419
     25 C         143.4329  140.2133  162.6569 C.2     1  UNL1        0.4054
     26 O         142.8801  139.8223  161.3184 O.2     1  UNL1       -0.2262
     27 C         142.9266  139.6960  166.3791 C.3     1  UNL1        0.0234
     28 C         143.0946  140.6105  165.2020 C.3     1  UNL1        0.0971
     29 O         144.8767  140.5979  162.7887 O.3     1  UNL1       -0.4295
     30 C         145.2758  142.0428  162.7358 C.3     1  UNL1        0.2367
     31 C         144.2328  143.1140  162.8578 C.ar    1  UNL1        0.0213
     32 C         144.1686  143.9608  164.0942 C.ar    1  UNL1       -0.0007
     33 C         143.1257  145.0319  164.2163 C.ar    1  UNL1       -0.0002
     34 C         142.1469  145.2562  163.1020 C.ar    1  UNL1       -0.0000
     35 C         142.2111  144.4094  161.8656 C.ar    1  UNL1       -0.0002
     36 C         143.2541  143.3382  161.7436 C.ar    1  UNL1       -0.0007
@<TRIPOS>UNITY_ATOM_ATTR
17 1
charge -1
@<TRIPOS>BOND
     1    27    28    1
     2    28    24    1
     3    24    23    1
     4    23     1    1
     5     1     2   ar
     6     2     3   ar
     7     3    19    1
     8    19    20    1
     9    19    21    1
    10    19    22    1
    11     3     4   ar
    12     4     5   ar
    13     5     6   ar
    14     6     7    1
    15     7     8   ar
    16     8     9   ar
    17     9    15    1
    18    15    16    1
    19    16    17   ar
    20    16    18   ar
    21     9    10   ar
    22    10    11   ar
    23    11    12   ar
    24    12    13    1
    25    13    14    1
    26    24    25   am
    27    25    26    2
    28    25    29    1
    29    29    30    1
    30    30    31    1
    31    31    32   ar
    32    32    33   ar
    33    33    34   ar
    34    34    35   ar
    35    35    36   ar
    36     6     1   ar
    37    12     7   ar
    38    36    31   ar
@<TRIPOS>MOLECULE
*****
 36 38 0 0 0
SMALL
GASTEIGER

@<TRIPOS>ATOM
      1 C         142.0214  143.1985  164.4582 C.ar    1  UNL1       -0.0022
      2 C         141.4720  144.1983  163.4843 C.ar    1  UNL1        0.0012
      3 C         140.0245  144.5869  163.5449 C.ar    1  UNL1        0.0712
      4 C         139.1265  143.9758  164.5794 C.ar    1  UNL1        0.0038
      5 C         139.6759  142.9760  165.5533 C.ar    1  UNL1       -0.0002
      6 C         141.1234  142.5874  165.4927 C.ar    1  UNL1        0.0005
      7 C         141.6730  141.5876  166.4666 C.ar    1  UNL1        0.0334
      8 C         142.1851  142.0435  167.8008 C.ar    1  UNL1       -0.0009
      9 C         142.7347  141.0438  168.7747 C.ar    1  UNL1       -0.0164
     10 C         142.7720  139.5881  168.4145 C.ar    1  UNL1       -0.0008
     11 C         142.2599  139.1322  167.0804 C.ar    1  UNL1        0.0366
     12 C         141.7103  140.1320  166.1065 C.ar    1  UNL1        0.1386
     13 O         141.1982  139.6761  164.7723 O.3     1  UNL1       -0.4714
     14 C         141.3164  138.2341  164.3765 C.3     1  UNL1        0.2525
     15 C         143.2468  141.4997  170.1088 C.3     1  UNL1        0.0679
     16 C         142.4960  142.5412  170.8844 C.2     1  UNL1        0.0547
     17 O         141.2680  142.1605  171.6573 O.co2   1  UNL1       -0.5488
     18 O         142.9731  143.9633  170.8871 O.co2   1  UNL1       -0.5488
     19 C         139.4749  145.5867  162.5710 C.3     1  UNL1        0.4186
     20 F         138.9255  146.5865  161.5971 F       1  UNL1       -0.1659
     21 F         140.8562  146.1266  162.3459 F       1  UNL1       -0.1659
     22 F         138.0937  145.0468  162.7960 F       1  UNL1       -0.1659
     23 C         143.4690  142.8099  164.3977 C.3     1  UNL1        0.1234
     24 N         144.0343  142.2164  163.1415 N.am    1  UNL1       -0.2419
     25 C         144.5553  143.1124  162.0571 C.2     1  UNL1        0.4054
     26 O         144.5109  144.6019  162.2290 O.2     1  UNL1       -0.2262
     27 C         144.8571  139.8834  163.9352 C.3     1  UNL1        0.0234
     28 C         144.0787  140.7270  162.9695 C.3     1  UNL1        0.0971
     29 O         145.1206  142.5190  160.8008 O.3     1  UNL1       -0.4295
     30 C         144.2436  142.3342  159.5980 C.3     1  UNL1        0.2367
     31 C         142.7750  142.6254  159.6887 C.ar    1  UNL1        0.0213
     32 C         142.2523  143.9753  159.2959 C.ar    1  UNL1       -0.0007
     33 C         140.7836  144.2665  159.3866 C.ar    1  UNL1       -0.0002
     34 C         139.8376  143.2076  159.8701 C.ar    1  UNL1       -0.0000
     35 C         140.3603  141.8576  160.2629 C.ar    1  UNL1       -0.0002
     36 C         141.8289  141.5665  160.1722 C.ar    1  UNL1       -0.0007
@<TRIPOS>UNITY_ATOM_ATTR
17 1
charge -1
@<TRIPOS>BOND
     1    27    28    1
     2    28    24    1
     3    24    23    1
     4    23     1    1
     5     1     2   ar
     6     2     3   ar
     7     3    19    1
     8    19    20    1
     9    19    21    1
    10    19    22    1
    11     3     4   ar
    12     4     5   ar
    13     5     6   ar
    14     6     7    1
    15     7     8   ar
    16     8     9   ar
    17     9    15    1
    18    15    16    1
    19    16    17   ar
    20    16    18   ar
    21     9    10   ar
    22    10    11   ar
    23    11    12   ar
    24    12    13    1
    25    13    14    1
    26    24    25   am
    27    25    26    2
    28    25    29    1
    29    29    30    1
    30    30    31    1
    31    31    32   ar
    32    32    33   ar
    33    33    34   ar
    34    34    35   ar
    35    35    36   ar
    36     6     1   ar
    37    12     7   ar
    38    36    31   ar
@<TRIPOS>MOLECULE
*****
 36 38 0 0 0
SMALL
GASTEIGER

@<TRIPOS>ATOM
      1 C         140.1998  141.7792  166.1243 C.ar    1  UNL1       -0.0022
      2 C         140.4123  141.4376  167.5693 C.ar    1  UNL1        0.0012
      3 C         139.6626  140.2952  168.1880 C.ar    1  UNL1        0.0712
      4 C         138.7005  139.4943  167.3616 C.ar    1  UNL1        0.0038
      5 C         138.4880  139.8358  165.9166 C.ar    1  UNL1       -0.0002
      6 C         139.2376  140.9783  165.2979 C.ar    1  UNL1        0.0005
      7 C         139.0252  141.3199  163.8528 C.ar    1  UNL1        0.0334
      8 C         139.7151  140.5241  162.7848 C.ar    1  UNL1       -0.0009
      9 C         139.5026  140.8656  161.3397 C.ar    1  UNL1       -0.0164
     10 C         138.6003  142.0030  160.9627 C.ar    1  UNL1       -0.0008
     11 C         137.9104  142.7989  162.0307 C.ar    1  UNL1        0.0366
     12 C         138.1228  142.4572  163.4758 C.ar    1  UNL1        0.1386
     13 O         137.4329  143.2531  164.5439 O.3     1  UNL1       -0.4714
     14 C         137.9685  144.5964  164.9422 C.3     1  UNL1        0.2525
     15 C         140.1925  140.0698  160.2717 C.3     1  UNL1        0.0679
     16 C         139.6265  138.7511  159.8353 C.2     1  UNL1        0.0547
     17 O         139.3659  137.6749  160.8473 O.co2   1  UNL1       -0.5488
     18 O         139.3210  138.5084  158.3869 O.co2   1  UNL1       -0.5488
     19 C         139.8751  139.9536  169.6331 C.3     1  UNL1        0.4186
     20 F         140.0876  139.6120  171.0781 F       1  UNL1       -0.1659
     21 F         141.2536  139.4565  169.3128 F       1  UNL1       -0.1659
     22 F         138.4966  140.4507  169.9533 F       1  UNL1       -0.1659
     23 C         140.9494  142.9217  165.5055 C.3     1  UNL1        0.1234
     24 N         142.2064  142.6613  164.7295 N.am    1  UNL1       -0.2419
     25 C         143.4796  142.3339  165.4520 C.2     1  UNL1        0.4054
     26 O         143.4958  142.2669  166.9504 O.2     1  UNL1       -0.2262
     27 C         141.5092  143.8715  162.5388 C.3     1  UNL1        0.0234
     28 C         142.1903  142.7284  163.2311 C.3     1  UNL1        0.0971
     29 O         144.7366  142.0736  164.6760 O.3     1  UNL1       -0.4295
     30 C         145.0658  140.6808  164.2268 C.3     1  UNL1        0.2367
     31 C         143.9733  139.6648  164.0719 C.ar    1  UNL1        0.0213
     32 C         143.6045  139.1621  162.7076 C.ar    1  UNL1       -0.0007
     33 C         142.5119  138.1460  162.5527 C.ar    1  UNL1       -0.0002
     34 C         141.7882  137.6327  163.7621 C.ar    1  UNL1       -0.0000
     35 C         142.1570  138.1354  165.1263 C.ar    1  UNL1       -0.0002
     36 C         143.2495  139.1514  165.2812 C.ar    1  UNL1       -0.0007
@<TRIPOS>UNITY_ATOM_ATTR
17 1
charge -1
@<TRIPOS>BOND
     1    27    28    1
     2    28    24    1
     3    24    23    1
     4    23     1    1
     5     1     2   ar
     6     2     3   ar
     7     3    19    1
     8    19    20    1
     9    19    21    1
    10    19    22    1
    11     3     4   ar
    12     4     5   ar
    13     5     6   ar
    14     6     7    1
    15     7     8   ar
    16     8     9   ar
    17     9    15    1
    18    15    16    1
    19    16    17   ar
    20    16    18   ar
    21     9    10   ar
    22    10    11   ar
    23    11    12   ar
    24    12    13    1
    25    13    14    1
    26    24    25   am
    27    25    26    2
    28    25    29    1
    29    29    30    1
    30    30    31    1
    31    31    32   ar
    32    32    33   ar
    33    33    34   ar
    34    34    35   ar
    35    35    36   ar
    36     6     1   ar
    37    12     7   ar
    38    36    31   ar
@<TRIPOS>MOLECULE
*****
 36 38 0 0 0
SMALL
GASTEIGER

@<TRIPOS>ATOM
      1 C         141.6482  142.8339  164.9655 C.ar    1  UNL1       -0.0022
      2 C         141.6361  143.6525  163.7086 C.ar    1  UNL1        0.0012
      3 C         140.4587  144.5270  163.3945 C.ar    1  UNL1        0.0712
      4 C         139.2933  144.5831  164.3372 C.ar    1  UNL1        0.0038
      5 C         139.3054  143.7646  165.5941 C.ar    1  UNL1       -0.0002
      6 C         140.4828  142.8900  165.9082 C.ar    1  UNL1        0.0005
      7 C         140.4949  142.0714  167.1652 C.ar    1  UNL1        0.0334
      8 C         141.3010  142.5233  168.3467 C.ar    1  UNL1       -0.0009
      9 C         141.3131  141.7048  169.6036 C.ar    1  UNL1       -0.0164
     10 C         140.5191  140.4343  169.6790 C.ar    1  UNL1       -0.0008
     11 C         139.7130  139.9824  168.4975 C.ar    1  UNL1        0.0366
     12 C         139.7009  140.8010  167.2405 C.ar    1  UNL1        0.1386
     13 O         138.8949  140.3492  166.0590 O.3     1  UNL1       -0.4714
     14 C         138.1632  139.0405  166.1065 C.3     1  UNL1        0.2525
     15 C         142.1192  142.1566  170.7852 C.3     1  UNL1        0.0679
     16 C         143.3176  143.0358  170.5835 C.2     1  UNL1        0.0547
     17 O         144.4157  142.6059  169.6565 O.co2   1  UNL1       -0.5488
     18 O         143.4180  144.3450  171.3088 O.co2   1  UNL1       -0.5488
     19 C         140.4466  145.3456  162.1375 C.3     1  UNL1        0.4186
     20 F         140.4346  146.1642  160.8806 F       1  UNL1       -0.1659
     21 F         141.8868  145.0008  161.8991 F       1  UNL1       -0.1659
     22 F         139.0064  145.6905  162.3759 F       1  UNL1       -0.1659
     23 C         142.8257  141.9593  165.2797 C.3     1  UNL1        0.1234
     24 N         143.2908  140.9406  164.2817 N.am    1  UNL1       -0.2419
     25 C         142.8752  139.5064  164.4247 C.2     1  UNL1        0.4054
     26 O         141.9946  139.0909  165.5657 O.2     1  UNL1       -0.2262
     27 C         145.6252  141.6380  163.3795 C.3     1  UNL1        0.0234
     28 C         144.1714  141.3562  163.1408 C.3     1  UNL1        0.0971
     29 O         143.3403  138.4878  163.4267 O.3     1  UNL1       -0.4295
     30 C         142.4298  138.0564  162.3155 C.3     1  UNL1        0.2367
     31 C         141.0191  138.5634  162.2621 C.ar    1  UNL1        0.0213
     32 C         139.8816  137.6557  162.6252 C.ar    1  UNL1       -0.0007
     33 C         138.4709  138.1628  162.5718 C.ar    1  UNL1       -0.0002
     34 C         138.1978  139.5776  162.1552 C.ar    1  UNL1       -0.0000
     35 C         139.3353  140.4854  161.7921 C.ar    1  UNL1       -0.0002
     36 C         140.7460  139.9783  161.8455 C.ar    1  UNL1       -0.0007
@<TRIPOS>UNITY_ATOM_ATTR
17 1
charge -1
@<TRIPOS>BOND
     1    27    28    1
     2    28    24    1
     3    24    23    1
     4    23     1    1
     5     1     2   ar
     6     2     3   ar
     7     3    19    1
     8    19    20    1
     9    19    21    1
    10    19    22    1
    11     3     4   ar
    12     4     5   ar
    13     5     6   ar
    14     6     7    1
    15     7     8   ar
    16     8     9   ar
    17     9    15    1
    18    15    16    1
    19    16    17   ar
    20    16    18   ar
    21     9    10   ar
    22    10    11   ar
    23    11    12   ar
    24    12    13    1
    25    13    14    1
    26    24    25   am
    27    25    26    2
    28    25    29    1
    29    29    30    1
    30    30    31    1
    31    31    32   ar
    32    32    33   ar
    33    33    34   ar
    34    34    35   ar
    35    35    36   ar
    36     6     1   ar
    37    12     7   ar
    38    36    31   ar
@<TRIPOS>MOLECULE
*****
 36 38 0 0 0
SMALL
GASTEIGER

@<TRIPOS>ATOM
      1 C         139.5867  142.6161  164.2681 C.ar    1  UNL1       -0.0022
      2 C         139.4515  143.5223  163.0805 C.ar    1  UNL1        0.0012
      3 C         140.5751  144.4436  162.7084 C.ar    1  UNL1        0.0712
      4 C         141.8340  144.4588  163.5239 C.ar    1  UNL1        0.0038
      5 C         141.9692  143.5527  164.7115 C.ar    1  UNL1       -0.0002
      6 C         140.8455  142.6313  165.0836 C.ar    1  UNL1        0.0005
      7 C         140.9807  141.7251  166.2713 C.ar    1  UNL1        0.0334
      8 C         140.2278  142.0255  167.5335 C.ar    1  UNL1       -0.0009
      9 C         140.3630  141.1194  168.7211 C.ar    1  UNL1       -0.0164
     10 C         141.2510  139.9127  168.6467 C.ar    1  UNL1       -0.0008
     11 C         142.0038  139.6122  167.3846 C.ar    1  UNL1        0.0366
     12 C         141.8686  140.5185  166.1969 C.ar    1  UNL1        0.1386
     13 O         142.6215  140.2180  164.9347 O.3     1  UNL1       -0.4714
     14 C         144.1005  140.4590  164.8683 C.3     1  UNL1        0.2525
     15 C         139.6101  141.4198  169.9833 C.3     1  UNL1        0.0679
     16 C         140.0953  142.4970  170.9076 C.2     1  UNL1        0.0547
     17 O         139.9468  143.9390  170.5221 O.co2   1  UNL1       -0.5488
     18 O         140.7289  142.1321  172.2173 O.co2   1  UNL1       -0.5488
     19 C         140.4400  145.3499  161.5207 C.3     1  UNL1        0.4186
     20 F         140.3048  146.2561  160.3331 F       1  UNL1       -0.1659
     21 F         139.1832  145.9256  162.1030 F       1  UNL1       -0.1659
     22 F         141.6967  144.7742  160.9383 F       1  UNL1       -0.1659
     23 C         138.4630  141.6947  164.6403 C.3     1  UNL1        0.1234
     24 N         138.3778  140.3293  164.0252 N.am    1  UNL1       -0.2419
     25 C         137.8148  140.1623  162.6449 C.2     1  UNL1        0.4054
     26 O         137.3370  141.3607  161.8797 O.2     1  UNL1       -0.2262
     27 C         138.3936  138.9079  166.1999 C.3     1  UNL1        0.0234
     28 C         138.8555  139.1309  164.7903 C.3     1  UNL1        0.0971
     29 O         137.7295  138.7968  162.0298 O.3     1  UNL1       -0.4295
     30 C         138.7896  138.3378  161.0730 C.3     1  UNL1        0.2367
     31 C         140.1883  138.8659  161.1935 C.ar    1  UNL1        0.0213
     32 C         140.5112  140.2502  160.7145 C.ar    1  UNL1       -0.0007
     33 C         141.9099  140.7784  160.8350 C.ar    1  UNL1       -0.0002
     34 C         142.9859  139.9223  161.4344 C.ar    1  UNL1       -0.0000
     35 C         142.6630  138.5380  161.9134 C.ar    1  UNL1       -0.0002
     36 C         141.2643  138.0098  161.7929 C.ar    1  UNL1       -0.0007
@<TRIPOS>UNITY_ATOM_ATTR
17 1
charge -1
@<TRIPOS>BOND
     1    27    28    1
     2    28    24    1
     3    24    23    1
     4    23     1    1
     5     1     2   ar
     6     2     3   ar
     7     3    19    1
     8    19    20    1
     9    19    21    1
    10    19    22    1
    11     3     4   ar
    12     4     5   ar
    13     5     6   ar
    14     6     7    1
    15     7     8   ar
    16     8     9   ar
    17     9    15    1
    18    15    16    1
    19    16    17   ar
    20    16    18   ar
    21     9    10   ar
    22    10    11   ar
    23    11    12   ar
    24    12    13    1
    25    13    14    1
    26    24    25   am
    27    25    26    2
    28    25    29    1
    29    29    30    1
    30    30    31    1
    31    31    32   ar
    32    32    33   ar
    33    33    34   ar
    34    34    35   ar
    35    35    36   ar
    36     6     1   ar
    37    12     7   ar
    38    36    31   ar
@<TRIPOS>MOLECULE
*****
 36 38 0 0 0
SMALL
GASTEIGER

@<TRIPOS>ATOM
      1 C         139.8274  141.6594  165.5235 C.ar    1  UNL1       -0.0022
      2 C         140.1516  142.4551  166.7530 C.ar    1  UNL1        0.0012
      3 C         141.3389  142.0877  167.5927 C.ar    1  UNL1        0.0712
      4 C         142.2021  140.9245  167.2029 C.ar    1  UNL1        0.0038
      5 C         141.8780  140.1288  165.9734 C.ar    1  UNL1       -0.0002
      6 C         140.6906  140.4962  165.1337 C.ar    1  UNL1        0.0005
      7 C         140.3663  139.7004  163.9042 C.ar    1  UNL1        0.0334
      8 C         141.1906  139.8695  162.6624 C.ar    1  UNL1       -0.0009
      9 C         140.8664  139.0738  161.4329 C.ar    1  UNL1       -0.0164
     10 C         139.7179  138.1090  161.4452 C.ar    1  UNL1       -0.0008
     11 C         138.8937  137.9398  162.6869 C.ar    1  UNL1        0.0366
     12 C         139.2179  138.7356  163.9165 C.ar    1  UNL1        0.1386
     13 O         138.3937  138.5665  165.1583 O.3     1  UNL1       -0.4714
     14 C         138.3796  137.2491  165.8755 C.3     1  UNL1        0.2525
     15 C         141.6906  139.2430  160.1911 C.3     1  UNL1        0.0679
     16 C         143.1065  138.7488  160.1577 C.2     1  UNL1        0.0547
     17 O         143.5482  137.6736  161.1057 O.co2   1  UNL1       -0.5488
     18 O         144.0806  139.3299  159.1761 O.co2   1  UNL1       -0.5488
     19 C         141.6632  142.8835  168.8222 C.3     1  UNL1        0.4186
     20 F         141.9874  143.6792  170.0517 F       1  UNL1       -0.1659
     21 F         143.1209  142.5874  168.6294 F       1  UNL1       -0.1659
     22 F         140.2054  143.1795  169.0151 F       1  UNL1       -0.1659
     23 C         138.6400  142.0268  164.6838 C.3     1  UNL1        0.1234
     24 N         138.8035  142.9609  163.5216 N.am    1  UNL1       -0.2419
     25 C         138.9243  144.4374  163.7574 C.2     1  UNL1        0.4054
     26 O         138.8816  144.9796  165.1553 O.2     1  UNL1       -0.2262
     27 C         137.8470  141.3882  161.6881 C.3     1  UNL1        0.0234
     28 C         138.8462  142.4187  162.1237 C.3     1  UNL1        0.0971
     29 O         139.0877  145.3716  162.5952 O.3     1  UNL1       -0.4295
     30 C         140.4602  145.7216  162.1016 C.3     1  UNL1        0.2367
     31 C         141.6461  144.9209  162.5520 C.ar    1  UNL1        0.0213
     32 C         142.3749  145.3011  163.8067 C.ar    1  UNL1       -0.0007
     33 C         143.5607  144.5004  164.2570 C.ar    1  UNL1       -0.0002
     34 C         144.0177  143.3196  163.4527 C.ar    1  UNL1       -0.0000
     35 C         143.2888  142.9395  162.1981 C.ar    1  UNL1       -0.0002
     36 C         142.1030  143.7402  161.7477 C.ar    1  UNL1       -0.0007
@<TRIPOS>UNITY_ATOM_ATTR
17 1
charge -1
@<TRIPOS>BOND
     1    27    28    1
     2    28    24    1
     3    24    23    1
     4    23     1    1
     5     1     2   ar
     6     2     3   ar
     7     3    19    1
     8    19    20    1
     9    19    21    1
    10    19    22    1
    11     3     4   ar
    12     4     5   ar
    13     5     6   ar
    14     6     7    1
    15     7     8   ar
    16     8     9   ar
    17     9    15    1
    18    15    16    1
    19    16    17   ar
    20    16    18   ar
    21     9    10   ar
    22    10    11   ar
    23    11    12   ar
    24    12    13    1
    25    13    14    1
    26    24    25   am
    27    25    26    2
    28    25    29    1
    29    29    30    1
    30    30    31    1
    31    31    32   ar
    32    32    33   ar
    33    33    34   ar
    34    34    35   ar
    35    35    36   ar
    36     6     1   ar
    37    12     7   ar
    38    36    31   ar
@<TRIPOS>MOLECULE
*****
 36 38 0 0 0
SMALL
GASTEIGER

@<TRIPOS>ATOM
      1 C         142.5670  141.7108  166.2917 C.ar    1  UNL1       -0.0022
      2 C         142.8842  142.5904  167.4645 C.ar    1  UNL1        0.0012
      3 C         143.0099  141.9956  168.8358 C.ar    1  UNL1        0.0712
      4 C         142.8184  140.5211  169.0342 C.ar    1  UNL1        0.0038
      5 C         142.5012  139.6415  167.8613 C.ar    1  UNL1       -0.0002
      6 C         142.3755  140.2363  166.4901 C.ar    1  UNL1        0.0005
      7 C         142.0582  139.3567  165.3172 C.ar    1  UNL1        0.0334
      8 C         143.0796  139.1474  164.2388 C.ar    1  UNL1       -0.0009
      9 C         142.7625  138.2678  163.0659 C.ar    1  UNL1       -0.0164
     10 C         141.4238  137.5975  162.9713 C.ar    1  UNL1       -0.0008
     11 C         140.4025  137.8068  164.0497 C.ar    1  UNL1        0.0366
     12 C         140.7197  138.6865  165.2227 C.ar    1  UNL1        0.1386
     13 O         139.6983  138.8958  166.3011 O.3     1  UNL1       -0.4714
     14 C         138.2539  139.0802  165.9405 C.3     1  UNL1        0.2525
     15 C         143.7839  138.0585  161.9875 C.3     1  UNL1        0.0679
     16 C         144.0297  139.1317  160.9688 C.2     1  UNL1        0.0547
     17 O         143.8409  138.8385  159.5099 O.co2   1  UNL1       -0.5488
     18 O         144.4644  140.4982  161.4090 O.co2   1  UNL1       -0.5488
     19 C         143.3271  142.8752  170.0087 C.3     1  UNL1        0.4186
     20 F         143.6444  143.7547  171.1816 F       1  UNL1       -0.1659
     21 F         144.7122  142.3022  170.0638 F       1  UNL1       -0.1659
     22 F         141.9420  143.4482  169.9537 F       1  UNL1       -0.1659
     23 C         142.4412  142.3056  164.9204 C.3     1  UNL1        0.1234
     24 N         141.4886  143.4388  164.6789 N.am    1  UNL1       -0.2419
     25 C         140.0994  143.3838  165.2421 C.2     1  UNL1        0.4054
     26 O         139.6629  142.1956  166.0467 O.2     1  UNL1       -0.2262
     27 C         143.3390  145.1191  163.9698 C.3     1  UNL1        0.0234
     28 C         141.9252  144.6271  163.8743 C.3     1  UNL1        0.0971
     29 O         139.1468  144.5171  165.0006 O.3     1  UNL1       -0.4295
     30 C         138.1183  144.4136  163.9137 C.3     1  UNL1        0.2367
     31 C         138.1332  143.2429  162.9760 C.ar    1  UNL1        0.0213
     32 C         138.8474  143.3443  161.6609 C.ar    1  UNL1       -0.0007
     33 C         138.8622  142.1736  160.7232 C.ar    1  UNL1       -0.0002
     34 C         138.1628  140.9015  161.1007 C.ar    1  UNL1       -0.0000
     35 C         137.4486  140.8001  162.4158 C.ar    1  UNL1       -0.0002
     36 C         137.4338  141.9708  163.3534 C.ar    1  UNL1       -0.0007
@<TRIPOS>UNITY_ATOM_ATTR
17 1
charge -1
@<TRIPOS>BOND
     1    27    28    1
     2    28    24    1
     3    24    23    1
     4    23     1    1
     5     1     2   ar
     6     2     3   ar
     7     3    19    1
     8    19    20    1
     9    19    21    1
    10    19    22    1
    11     3     4   ar
    12     4     5   ar
    13     5     6   ar
    14     6     7    1
    15     7     8   ar
    16     8     9   ar
    17     9    15    1
    18    15    16    1
    19    16    17   ar
    20    16    18   ar
    21     9    10   ar
    22    10    11   ar
    23    11    12   ar
    24    12    13    1
    25    13    14    1
    26    24    25   am
    27    25    26    2
    28    25    29    1
    29    29    30    1
    30    30    31    1
    31    31    32   ar
    32    32    33   ar
    33    33    34   ar
    34    34    35   ar
    35    35    36   ar
    36     6     1   ar
    37    12     7   ar
    38    36    31   ar
