@<TRIPOS>MOLECULE
*****
 38 43 0 0 0
SMALL
GASTEIGER

@<TRIPOS>ATOM
      1 C         140.7835  138.0235  163.9895 C.2     1  UNL1        0.2494
      2 O         141.1149  136.5614  163.9384 O.2     1  UNL1       -0.2699
      3 N         140.7897  138.8384  162.7302 N.am    1  UNL1       -0.2660
      4 C         140.4583  140.3004  162.7814 C.3     1  UNL1        0.1160
      5 C         140.4646  141.1154  161.5220 C.3     1  UNL1        0.1197
      6 N         140.8022  140.4682  160.2116 N.am    1  UNL1       -0.2555
      7 C         141.1336  139.0062  160.1605 C.2     1  UNL1        0.2497
      8 O         141.4712  138.3591  158.8501 O.2     1  UNL1       -0.2727
      9 C         141.1274  138.1913  161.4197 C.3     1  UNL1        0.1799
     10 C         139.7705  139.9647  167.9208 C.ar    1  UNL1        0.0536
     11 C         138.6824  139.3758  167.0728 C.ar    1  UNL1        0.0047
     12 C         139.0201  138.7288  165.7624 C.ar    1  UNL1        0.0047
     13 C         140.4459  138.6706  165.3000 C.ar    1  UNL1        0.0536
     14 C         141.5340  139.2594  166.1480 C.ar    1  UNL1        0.0047
     15 C         141.1963  139.9065  167.4584 C.ar    1  UNL1        0.0047
     16 O         138.6373  139.8593  170.2564 O.2     1  UNL1       -0.2699
     17 C         139.4329  140.6118  169.2313 C.2     1  UNL1        0.2490
     18 N         139.8909  142.0114  169.5167 N.am    1  UNL1       -0.2760
     19 C         140.6773  143.0441  168.7650 C.3     1  UNL1        0.0955
     20 C         140.5385  143.9907  169.9203 C.3     1  UNL1        0.0430
     21 C         139.7521  142.9580  170.6720 C.3     1  UNL1        0.0955
     22 C         140.8085  141.2831  158.9523 C.ar    1  UNL1        0.0541
     23 C         141.9450  142.2208  158.6714 C.ar    1  UNL1        0.0180
     24 C         141.9512  143.0358  157.4120 C.ar    1  UNL1        0.0382
     25 C         140.8209  142.9130  156.4337 C.ar    1  UNL1        0.1385
     26 C         139.6843  141.9753  156.7146 C.ar    1  UNL1        0.0382
     27 C         139.6781  141.1604  157.9739 C.ar    1  UNL1        0.0180
     28 O         140.8271  143.7279  155.1744 O.3     1  UNL1       -0.4791
     29 C         140.3922  145.1631  155.2076 C.3     1  UNL1        0.1687
     30 C         139.6083  145.6824  156.3763 C.3     1  UNL1        0.0609
     31 C         139.1733  147.1175  156.4095 C.3     1  UNL1        0.0758
     32 N         139.5224  148.0335  155.2741 N.3     1  UNL1       -0.2737
     33 C         140.3064  147.5143  154.1054 C.3     1  UNL1        0.0758
     34 C         140.7413  146.0791  154.0722 C.3     1  UNL1        0.0609
     35 C         139.0875  149.4687  155.3073 C.3     1  UNL1        0.0575
     36 C         139.1930  150.6311  154.3652 C.3     1  UNL1        0.0160
     37 C         138.4725  151.4983  155.3543 C.3     1  UNL1        0.0028
     38 C         138.3669  150.3360  156.2966 C.3     1  UNL1        0.0160
@<TRIPOS>BOND
     1    16    17    2
     2    17    10    1
     3    10    11   ar
     4    11    12   ar
     5    12    13   ar
     6    13     1    1
     7     1     2    2
     8     1     3   am
     9     3     4    1
    10     4     5    1
    11     5     6    1
    12     6    22    1
    13    22    23   ar
    14    23    24   ar
    15    24    25   ar
    16    25    28    1
    17    28    29    1
    18    29    30    1
    19    30    31    1
    20    31    32    1
    21    32    35    1
    22    35    36    1
    23    36    37    1
    24    37    38    1
    25    32    33    1
    26    33    34    1
    27    25    26   ar
    28    26    27   ar
    29     6     7   am
    30     7     8    2
    31     7     9    1
    32    13    14   ar
    33    14    15   ar
    34    17    18   am
    35    18    19    1
    36    19    20    1
    37    20    21    1
    38    15    10   ar
    39    21    18    1
    40     9     3    1
    41    27    22   ar
    42    34    29    1
    43    38    35    1
@<TRIPOS>MOLECULE
*****
 38 43 0 0 0
SMALL
GASTEIGER

@<TRIPOS>ATOM
      1 C         141.5597  143.6418  163.2729 C.2     1  UNL1        0.2494
      2 O         141.1882  145.0616  162.9627 O.2     1  UNL1       -0.2699
      3 N         141.5808  142.6159  162.1788 N.am    1  UNL1       -0.2660
      4 C         141.9522  141.1961  162.4889 C.3     1  UNL1        0.1160
      5 C         141.9733  140.1702  161.3947 C.3     1  UNL1        0.1197
      6 N         141.6229  140.5642  159.9904 N.am    1  UNL1       -0.2555
      7 C         141.2515  141.9840  159.6803 C.2     1  UNL1        0.2497
      8 O         140.9012  142.3780  158.2760 O.2     1  UNL1       -0.2727
      9 C         141.2304  143.0099  160.7744 C.3     1  UNL1        0.1799
     10 C         142.6106  142.4600  167.4858 C.ar    1  UNL1        0.0536
     11 C         141.1729  142.5375  167.0651 C.ar    1  UNL1        0.0047
     12 C         140.8226  142.9314  165.6608 C.ar    1  UNL1        0.0047
     13 C         141.9100  143.2478  164.6773 C.ar    1  UNL1        0.0536
     14 C         143.3477  143.1704  165.0980 C.ar    1  UNL1        0.0047
     15 C         143.6980  142.7765  166.5023 C.ar    1  UNL1        0.0047
     16 O         143.4585  143.0994  169.8570 O.2     1  UNL1       -0.2699
     17 C         142.9609  142.0661  168.8902 C.2     1  UNL1        0.2490
     18 N         142.8137  140.6389  169.3277 N.am    1  UNL1       -0.2760
     19 C         142.3634  139.3687  168.6691 C.3     1  UNL1        0.0955
     20 C         142.6054  138.6205  169.9464 C.3     1  UNL1        0.0430
     21 C         143.0557  139.8908  170.6051 C.3     1  UNL1        0.0955
     22 C         141.6440  139.5384  158.8963 C.ar    1  UNL1        0.0541
     23 C         142.8968  139.3142  158.1024 C.ar    1  UNL1        0.0180
     24 C         142.9178  138.2883  157.0082 C.ar    1  UNL1        0.0382
     25 C         141.6862  137.4866  156.7080 C.ar    1  UNL1        0.1385
     26 C         140.4334  137.7107  157.5020 C.ar    1  UNL1        0.0382
     27 C         140.4123  138.7365  158.5961 C.ar    1  UNL1        0.0180
     28 O         141.7073  136.4607  155.6139 O.3     1  UNL1       -0.4791
     29 C         142.0698  135.0390  155.9257 C.3     1  UNL1        0.1687
     30 C         143.1189  134.7410  156.9555 C.3     1  UNL1        0.0609
     31 C         143.4814  133.3193  157.2673 C.3     1  UNL1        0.0758
     32 N         142.7948  132.1955  156.5493 N.3     1  UNL1       -0.2737
     33 C         141.7455  132.4934  155.5195 C.3     1  UNL1        0.0758
     34 C         141.3830  133.9151  155.2077 C.3     1  UNL1        0.0609
     35 C         143.1573  130.7737  156.8611 C.3     1  UNL1        0.0575
     36 C         142.7840  129.4355  156.2958 C.3     1  UNL1        0.0160
     37 C         143.6699  128.7631  157.3021 C.3     1  UNL1        0.0028
     38 C         144.0433  130.1013  157.8676 C.3     1  UNL1        0.0160
@<TRIPOS>BOND
     1    16    17    2
     2    17    10    1
     3    10    11   ar
     4    11    12   ar
     5    12    13   ar
     6    13     1    1
     7     1     2    2
     8     1     3   am
     9     3     4    1
    10     4     5    1
    11     5     6    1
    12     6    22    1
    13    22    23   ar
    14    23    24   ar
    15    24    25   ar
    16    25    28    1
    17    28    29    1
    18    29    30    1
    19    30    31    1
    20    31    32    1
    21    32    35    1
    22    35    36    1
    23    36    37    1
    24    37    38    1
    25    32    33    1
    26    33    34    1
    27    25    26   ar
    28    26    27   ar
    29     6     7   am
    30     7     8    2
    31     7     9    1
    32    13    14   ar
    33    14    15   ar
    34    17    18   am
    35    18    19    1
    36    19    20    1
    37    20    21    1
    38    15    10   ar
    39    21    18    1
    40     9     3    1
    41    27    22   ar
    42    34    29    1
    43    38    35    1
@<TRIPOS>MOLECULE
*****
 38 43 0 0 0
SMALL
GASTEIGER

@<TRIPOS>ATOM
      1 C         138.0404  141.0017  163.3185 C.2     1  UNL1        0.2494
      2 O         136.7646  141.7712  163.1445 O.2     1  UNL1       -0.2699
      3 N         138.7037  140.3708  162.1303 N.am    1  UNL1       -0.2660
      4 C         139.9795  139.6013  162.3043 C.3     1  UNL1        0.1160
      5 C         140.6429  138.9704  161.1160 C.3     1  UNL1        0.1197
      6 N         140.0304  139.1090  159.7538 N.am    1  UNL1       -0.2555
      7 C         138.7547  139.8785  159.5798 C.2     1  UNL1        0.2497
      8 O         138.1422  140.0171  158.2176 O.2     1  UNL1       -0.2727
      9 C         138.0913  140.5094  160.7680 C.3     1  UNL1        0.1799
     10 C         139.8776  140.5861  167.4053 C.ar    1  UNL1        0.0536
     11 C         140.1182  141.8268  166.5976 C.ar    1  UNL1        0.0047
     12 C         139.5058  141.9654  165.2353 C.ar    1  UNL1        0.0047
     13 C         138.6528  140.8631  164.6809 C.ar    1  UNL1        0.0536
     14 C         138.4122  139.6224  165.4886 C.ar    1  UNL1        0.0047
     15 C         139.0246  139.4838  166.8508 C.ar    1  UNL1        0.0047
     16 O         139.8075  139.6199  169.8161 O.2     1  UNL1       -0.2699
     17 C         140.4901  140.4475  168.7676 C.2     1  UNL1        0.2490
     18 N         141.7849  141.1365  169.0814 N.am    1  UNL1       -0.2760
     19 C         142.7292  142.0181  168.3191 C.3     1  UNL1        0.0955
     20 C         143.6162  142.1109  169.5252 C.3     1  UNL1        0.0430
     21 C         142.6720  141.2292  170.2875 C.3     1  UNL1        0.0955
     22 C         140.6938  138.4782  158.5656 C.ar    1  UNL1        0.0541
     23 C         139.8747  137.7172  157.5656 C.ar    1  UNL1        0.0180
     24 C         140.5382  137.0863  156.3773 C.ar    1  UNL1        0.0382
     25 C         142.0206  137.2164  156.1891 C.ar    1  UNL1        0.1385
     26 C         142.8397  137.9773  157.1892 C.ar    1  UNL1        0.0382
     27 C         142.1763  138.6082  158.3774 C.ar    1  UNL1        0.0180
     28 O         142.6839  136.5855  155.0009 O.3     1  UNL1       -0.4791
     29 C         142.9227  135.1049  154.9736 C.3     1  UNL1        0.1687
     30 C         143.7272  134.4547  156.0599 C.3     1  UNL1        0.0609
     31 C         143.9660  132.9741  156.0325 C.3     1  UNL1        0.0758
     32 N         143.4004  132.1436  154.9189 N.3     1  UNL1       -0.2737
     33 C         142.5958  132.7937  153.8325 C.3     1  UNL1        0.0758
     34 C         142.3570  134.2744  153.8598 C.3     1  UNL1        0.0609
     35 C         143.6392  130.6630  154.8916 C.3     1  UNL1        0.0575
     36 C         144.8439  129.7859  154.7208 C.3     1  UNL1        0.0160
     37 C         143.9769  128.5691  154.8529 C.3     1  UNL1        0.0028
     38 C         142.7721  129.4461  155.0237 C.3     1  UNL1        0.0160
@<TRIPOS>BOND
     1    16    17    2
     2    17    10    1
     3    10    11   ar
     4    11    12   ar
     5    12    13   ar
     6    13     1    1
     7     1     2    2
     8     1     3   am
     9     3     4    1
    10     4     5    1
    11     5     6    1
    12     6    22    1
    13    22    23   ar
    14    23    24   ar
    15    24    25   ar
    16    25    28    1
    17    28    29    1
    18    29    30    1
    19    30    31    1
    20    31    32    1
    21    32    35    1
    22    35    36    1
    23    36    37    1
    24    37    38    1
    25    32    33    1
    26    33    34    1
    27    25    26   ar
    28    26    27   ar
    29     6     7   am
    30     7     8    2
    31     7     9    1
    32    13    14   ar
    33    14    15   ar
    34    17    18   am
    35    18    19    1
    36    19    20    1
    37    20    21    1
    38    15    10   ar
    39    21    18    1
    40     9     3    1
    41    27    22   ar
    42    34    29    1
    43    38    35    1
@<TRIPOS>MOLECULE
*****
 38 43 0 0 0
SMALL
GASTEIGER

@<TRIPOS>ATOM
      1 C         143.9060  141.1217  163.2440 C.2     1  UNL1        0.2494
      2 O         145.3441  141.4091  162.9292 O.2     1  UNL1       -0.2699
      3 N         142.8794  141.1465  162.1507 N.am    1  UNL1       -0.2660
      4 C         141.4412  140.8591  162.4656 C.3     1  UNL1        0.1160
      5 C         140.4146  140.8840  161.3722 C.3     1  UNL1        0.1197
      6 N         140.8261  141.1962  159.9640 N.am    1  UNL1       -0.2555
      7 C         142.2643  141.4837  159.6491 C.2     1  UNL1        0.2497
      8 O         142.6758  141.7960  158.2409 O.2     1  UNL1       -0.2727
      9 C         143.2909  141.4588  160.7424 C.3     1  UNL1        0.1799
     10 C         142.6715  140.1847  167.4687 C.ar    1  UNL1        0.0536
     11 C         142.9827  139.0707  166.5138 C.ar    1  UNL1        0.0047
     12 C         143.3942  139.3830  165.1056 C.ar    1  UNL1        0.0047
     13 C         143.4945  140.8094  164.6523 C.ar    1  UNL1        0.0536
     14 C         143.1833  141.9234  165.6073 C.ar    1  UNL1        0.0047
     15 C         142.7718  141.6111  167.0155 C.ar    1  UNL1        0.0047
     16 O         143.2711  139.3539  169.8563 O.2     1  UNL1       -0.2699
     17 C         142.2600  139.8724  168.8770 C.2     1  UNL1        0.2490
     18 N         140.8376  140.0786  169.3060 N.am    1  UNL1       -0.2760
     19 C         139.5869  140.5635  168.6346 C.3     1  UNL1        0.0955
     20 C         138.8258  140.3701  169.9126 C.3     1  UNL1        0.0430
     21 C         140.0764  139.8852  170.5840 C.3     1  UNL1        0.0955
     22 C         139.7995  141.2211  158.8706 C.ar    1  UNL1        0.0541
     23 C         139.6799  140.0607  157.9277 C.ar    1  UNL1        0.0180
     24 C         138.6532  140.0856  156.8343 C.ar    1  UNL1        0.0382
     25 C         137.7463  141.2708  156.6839 C.ar    1  UNL1        0.1385
     26 C         137.8659  142.4312  157.6269 C.ar    1  UNL1        0.0382
     27 C         138.8925  142.4064  158.7203 C.ar    1  UNL1        0.0180
     28 O         136.7196  141.2957  155.5906 O.3     1  UNL1       -0.4791
     29 C         135.2903  140.9583  155.8961 C.3     1  UNL1        0.1687
     30 C         134.1892  141.5196  155.0462 C.3     1  UNL1        0.0609
     31 C         132.7599  141.1823  155.3517 C.3     1  UNL1        0.0758
     32 N         132.4317  140.2837  156.5069 N.3     1  UNL1       -0.2737
     33 C         133.5330  139.7223  157.3569 C.3     1  UNL1        0.0758
     34 C         134.9623  140.0596  157.0514 C.3     1  UNL1        0.0609
     35 C         131.0024  139.9463  156.8124 C.3     1  UNL1        0.0575
     36 C         130.3120  139.0305  157.7791 C.3     1  UNL1        0.0160
     37 C         128.9811  139.4692  157.2443 C.3     1  UNL1        0.0028
     38 C         129.6714  140.3851  156.2776 C.3     1  UNL1        0.0160
@<TRIPOS>BOND
     1    16    17    2
     2    17    10    1
     3    10    11   ar
     4    11    12   ar
     5    12    13   ar
     6    13     1    1
     7     1     2    2
     8     1     3   am
     9     3     4    1
    10     4     5    1
    11     5     6    1
    12     6    22    1
    13    22    23   ar
    14    23    24   ar
    15    24    25   ar
    16    25    28    1
    17    28    29    1
    18    29    30    1
    19    30    31    1
    20    31    32    1
    21    32    35    1
    22    35    36    1
    23    36    37    1
    24    37    38    1
    25    32    33    1
    26    33    34    1
    27    25    26   ar
    28    26    27   ar
    29     6     7   am
    30     7     8    2
    31     7     9    1
    32    13    14   ar
    33    14    15   ar
    34    17    18   am
    35    18    19    1
    36    19    20    1
    37    20    21    1
    38    15    10   ar
    39    21    18    1
    40     9     3    1
    41    27    22   ar
    42    34    29    1
    43    38    35    1
@<TRIPOS>MOLECULE
*****
 38 43 0 0 0
SMALL
GASTEIGER

@<TRIPOS>ATOM
      1 C         144.4467  141.4974  163.3955 C.2     1  UNL1        0.2494
      2 O         145.8688  141.0809  163.1628 O.2     1  UNL1       -0.2699
      3 N         143.6582  142.1262  162.2852 N.am    1  UNL1       -0.2660
      4 C         142.2361  142.5427  162.5179 C.3     1  UNL1        0.1160
      5 C         141.4475  143.1716  161.4075 C.3     1  UNL1        0.1197
      6 N         142.0811  143.3840  160.0646 N.am    1  UNL1       -0.2555
      7 C         143.5033  142.9676  159.8320 C.2     1  UNL1        0.2497
      8 O         144.1369  143.1800  158.4891 O.2     1  UNL1       -0.2727
      9 C         144.2918  142.3387  160.9423 C.3     1  UNL1        0.1799
     10 C         142.5460  140.8601  167.4243 C.ar    1  UNL1        0.0536
     11 C         143.1464  142.1909  167.0803 C.ar    1  UNL1        0.0047
     12 C         143.7799  142.4034  165.7374 C.ar    1  UNL1        0.0047
     13 C         143.8131  141.2849  164.7384 C.ar    1  UNL1        0.0536
     14 C         143.2127  139.9541  165.0824 C.ar    1  UNL1        0.0047
     15 C         142.5792  139.7416  166.4253 C.ar    1  UNL1        0.0047
     16 O         142.0807  139.3369  169.4770 O.2     1  UNL1       -0.2699
     17 C         141.9124  140.6476  168.7672 C.2     1  UNL1        0.2490
     18 N         141.1105  141.7458  169.4004 N.am    1  UNL1       -0.2760
     19 C         140.7334  143.1442  169.0100 C.3     1  UNL1        0.0955
     20 C         139.9765  143.2989  170.2958 C.3     1  UNL1        0.0430
     21 C         140.3535  141.9006  170.6861 C.3     1  UNL1        0.0955
     22 C         141.2926  144.0129  158.9544 C.ar    1  UNL1        0.0541
     23 C         141.4856  145.4637  158.6258 C.ar    1  UNL1        0.0180
     24 C         140.6970  146.0925  157.5155 C.ar    1  UNL1        0.0382
     25 C         139.7155  145.2706  156.7338 C.ar    1  UNL1        0.1385
     26 C         139.5225  143.8198  157.0624 C.ar    1  UNL1        0.0382
     27 C         140.3110  143.1910  158.1727 C.ar    1  UNL1        0.0180
     28 O         138.9270  145.8995  155.6236 O.3     1  UNL1       -0.4791
     29 C         139.1597  147.3356  155.2585 C.3     1  UNL1        0.1687
     30 C         138.4582  148.4248  156.0145 C.3     1  UNL1        0.0609
     31 C         138.6910  149.8610  155.6493 C.3     1  UNL1        0.0758
     32 N         139.6251  150.2079  154.5283 N.3     1  UNL1       -0.2737
     33 C         140.3266  149.1187  153.7722 C.3     1  UNL1        0.0758
     34 C         140.0939  147.6826  154.1373 C.3     1  UNL1        0.0609
     35 C         139.8579  151.6441  154.1631 C.3     1  UNL1        0.0575
     36 C         140.9851  152.4099  153.5363 C.3     1  UNL1        0.0160
     37 C         140.1870  153.6751  153.6468 C.3     1  UNL1        0.0028
     38 C         139.0597  152.9094  154.2736 C.3     1  UNL1        0.0160
@<TRIPOS>BOND
     1    16    17    2
     2    17    10    1
     3    10    11   ar
     4    11    12   ar
     5    12    13   ar
     6    13     1    1
     7     1     2    2
     8     1     3   am
     9     3     4    1
    10     4     5    1
    11     5     6    1
    12     6    22    1
    13    22    23   ar
    14    23    24   ar
    15    24    25   ar
    16    25    28    1
    17    28    29    1
    18    29    30    1
    19    30    31    1
    20    31    32    1
    21    32    35    1
    22    35    36    1
    23    36    37    1
    24    37    38    1
    25    32    33    1
    26    33    34    1
    27    25    26   ar
    28    26    27   ar
    29     6     7   am
    30     7     8    2
    31     7     9    1
    32    13    14   ar
    33    14    15   ar
    34    17    18   am
    35    18    19    1
    36    19    20    1
    37    20    21    1
    38    15    10   ar
    39    21    18    1
    40     9     3    1
    41    27    22   ar
    42    34    29    1
    43    38    35    1
@<TRIPOS>MOLECULE
*****
 38 43 0 0 0
SMALL
GASTEIGER

@<TRIPOS>ATOM
      1 C         138.9993  146.0665  155.4836 C.2     1  UNL1        0.2494
      2 O         137.8253  145.2963  154.9561 O.2     1  UNL1       -0.2699
      3 N         139.8177  145.5083  156.6099 N.am    1  UNL1       -0.2660
      4 C         140.9917  146.2786  157.1374 C.3     1  UNL1        0.1160
      5 C         141.8101  145.7203  158.2638 C.3     1  UNL1        0.1197
      6 N         141.4543  144.3918  158.8627 N.am    1  UNL1       -0.2555
      7 C         140.2803  143.6216  158.3351 C.2     1  UNL1        0.2497
      8 O         139.9245  142.2932  158.9340 O.2     1  UNL1       -0.2727
      9 C         139.4619  144.1798  157.2088 C.3     1  UNL1        0.1799
     10 C         140.0664  150.0520  153.6871 C.ar    1  UNL1        0.0536
     11 C         139.1418  149.9843  154.8663 C.ar    1  UNL1        0.0047
     12 C         138.7862  148.6558  155.4651 C.ar    1  UNL1        0.0047
     13 C         139.3551  147.3951  154.8847 C.ar    1  UNL1        0.0536
     14 C         140.2796  147.4628  153.7055 C.ar    1  UNL1        0.0047
     15 C         140.6353  148.7912  153.1067 C.ar    1  UNL1        0.0047
     16 O         139.5156  152.0129  152.0742 O.2     1  UNL1       -0.2699
     17 C         140.4221  151.3805  153.0882 C.2     1  UNL1        0.2490
     18 N         141.6843  152.0765  153.5033 N.am    1  UNL1       -0.2760
     19 C         142.8017  151.7681  154.4553 C.3     1  UNL1        0.0955
     20 C         143.4694  153.0608  154.0904 C.3     1  UNL1        0.0430
     21 C         142.3520  153.3692  153.1384 C.3     1  UNL1        0.0955
     22 C         142.2727  143.8336  159.9890 C.ar    1  UNL1        0.0541
     23 C         143.4303  142.9256  159.6967 C.ar    1  UNL1        0.0180
     24 C         144.2486  142.3673  160.8232 C.ar    1  UNL1        0.0382
     25 C         143.9094  142.7172  162.2418 C.ar    1  UNL1        0.1385
     26 C         142.7518  143.6253  162.5340 C.ar    1  UNL1        0.0382
     27 C         141.9334  144.1835  161.4077 C.ar    1  UNL1        0.0180
     28 O         144.7277  142.1590  163.3681 O.3     1  UNL1       -0.4791
     29 C         144.0541  141.6880  164.6229 C.3     1  UNL1        0.1687
     30 C         143.7825  142.6553  165.7367 C.3     1  UNL1        0.0609
     31 C         143.1089  142.1843  166.9915 C.3     1  UNL1        0.0758
     32 N         142.7070  140.7461  167.1324 N.3     1  UNL1       -0.2737
     33 C         142.9786  139.7787  166.0186 C.3     1  UNL1        0.0758
     34 C         143.6522  140.2497  164.7638 C.3     1  UNL1        0.0609
     35 C         142.0334  140.2751  168.3872 C.3     1  UNL1        0.0575
     36 C         140.6179  140.2405  168.8824 C.3     1  UNL1        0.0160
     37 C         141.0808  139.6090  170.1617 C.3     1  UNL1        0.0028
     38 C         142.4963  139.6435  169.6667 C.3     1  UNL1        0.0160
@<TRIPOS>BOND
     1    16    17    2
     2    17    10    1
     3    10    11   ar
     4    11    12   ar
     5    12    13   ar
     6    13     1    1
     7     1     2    2
     8     1     3   am
     9     3     4    1
    10     4     5    1
    11     5     6    1
    12     6    22    1
    13    22    23   ar
    14    23    24   ar
    15    24    25   ar
    16    25    28    1
    17    28    29    1
    18    29    30    1
    19    30    31    1
    20    31    32    1
    21    32    35    1
    22    35    36    1
    23    36    37    1
    24    37    38    1
    25    32    33    1
    26    33    34    1
    27    25    26   ar
    28    26    27   ar
    29     6     7   am
    30     7     8    2
    31     7     9    1
    32    13    14   ar
    33    14    15   ar
    34    17    18   am
    35    18    19    1
    36    19    20    1
    37    20    21    1
    38    15    10   ar
    39    21    18    1
    40     9     3    1
    41    27    22   ar
    42    34    29    1
    43    38    35    1
@<TRIPOS>MOLECULE
*****
 38 43 0 0 0
SMALL
GASTEIGER

@<TRIPOS>ATOM
      1 C         139.5450  138.5909  163.3836 C.2     1  UNL1        0.2494
      2 O         138.8460  137.2643  163.3433 O.2     1  UNL1       -0.2699
      3 N         139.6476  139.4226  162.1396 N.am    1  UNL1       -0.2660
      4 C         140.3466  140.7492  162.1799 C.3     1  UNL1        0.1160
      5 C         140.4492  141.5810  160.9358 C.3     1  UNL1        0.1197
      6 N         139.8530  141.0861  159.6515 N.am    1  UNL1       -0.2555
      7 C         139.1540  139.7595  159.6112 C.2     1  UNL1        0.2497
      8 O         138.5578  139.2647  158.3269 O.2     1  UNL1       -0.2727
      9 C         139.0514  138.9278  160.8552 C.3     1  UNL1        0.1799
     10 C         141.3338  140.0753  167.2367 C.ar    1  UNL1        0.0536
     11 C         142.1831  139.3208  166.2573 C.ar    1  UNL1        0.0047
     12 C         141.5868  138.8260  164.9729 C.ar    1  UNL1        0.0047
     13 C         140.1412  139.0857  164.6680 C.ar    1  UNL1        0.0536
     14 C         139.2920  139.8403  165.6475 C.ar    1  UNL1        0.0047
     15 C         139.8883  140.3351  166.9318 C.ar    1  UNL1        0.0047
     16 O         142.9607  139.7472  169.2356 O.2     1  UNL1       -0.2699
     17 C         141.9301  140.5702  168.5211 C.2     1  UNL1        0.2490
     18 N         141.4957  141.8879  169.0910 N.am    1  UNL1       -0.2760
     19 C         140.5243  142.9537  168.6779 C.3     1  UNL1        0.0955
     20 C         140.8814  143.7515  169.8970 C.3     1  UNL1        0.0430
     21 C         141.8527  142.6858  170.3100 C.3     1  UNL1        0.0955
     22 C         139.9556  141.9179  158.4075 C.ar    1  UNL1        0.0541
     23 C         141.2938  142.1568  157.7734 C.ar    1  UNL1        0.0180
     24 C         141.3965  142.9886  156.5293 C.ar    1  UNL1        0.0382
     25 C         140.1609  143.5814  155.9194 C.ar    1  UNL1        0.1385
     26 C         138.8227  143.3424  156.5535 C.ar    1  UNL1        0.0382
     27 C         138.7201  142.5107  157.7975 C.ar    1  UNL1        0.0180
     28 O         140.2636  144.4131  154.6754 O.3     1  UNL1       -0.4791
     29 C         139.9950  145.8877  154.7347 C.3     1  UNL1        0.1687
     30 C         139.1088  146.4460  155.8085 C.3     1  UNL1        0.0609
     31 C         138.8402  147.9205  155.8679 C.3     1  UNL1        0.0758
     32 N         139.4578  148.8368  154.8535 N.3     1  UNL1       -0.2737
     33 C         140.3440  148.2785  153.7797 C.3     1  UNL1        0.0758
     34 C         140.6126  146.8040  153.7203 C.3     1  UNL1        0.0609
     35 C         139.1891  150.3114  154.9129 C.3     1  UNL1        0.0575
     36 C         139.1824  151.4294  153.9129 C.3     1  UNL1        0.0160
     37 C         138.8093  152.3967  154.9969 C.3     1  UNL1        0.0028
     38 C         138.8159  151.2787  155.9969 C.3     1  UNL1        0.0160
@<TRIPOS>BOND
     1    16    17    2
     2    17    10    1
     3    10    11   ar
     4    11    12   ar
     5    12    13   ar
     6    13     1    1
     7     1     2    2
     8     1     3   am
     9     3     4    1
    10     4     5    1
    11     5     6    1
    12     6    22    1
    13    22    23   ar
    14    23    24   ar
    15    24    25   ar
    16    25    28    1
    17    28    29    1
    18    29    30    1
    19    30    31    1
    20    31    32    1
    21    32    35    1
    22    35    36    1
    23    36    37    1
    24    37    38    1
    25    32    33    1
    26    33    34    1
    27    25    26   ar
    28    26    27   ar
    29     6     7   am
    30     7     8    2
    31     7     9    1
    32    13    14   ar
    33    14    15   ar
    34    17    18   am
    35    18    19    1
    36    19    20    1
    37    20    21    1
    38    15    10   ar
    39    21    18    1
    40     9     3    1
    41    27    22   ar
    42    34    29    1
    43    38    35    1
@<TRIPOS>MOLECULE
*****
 38 43 0 0 0
SMALL
GASTEIGER

@<TRIPOS>ATOM
      1 C         139.2413  142.8880  154.5554 C.2     1  UNL1        0.2494
      2 O         139.2171  142.1545  153.2473 O.2     1  UNL1       -0.2699
      3 N         139.2051  142.1229  155.8451 N.am    1  UNL1       -0.2660
      4 C         139.2293  142.8564  157.1533 C.3     1  UNL1        0.1160
      5 C         139.1931  142.0912  158.4430 C.3     1  UNL1        0.1197
      6 N         139.1327  140.5926  158.4244 N.am    1  UNL1       -0.2555
      7 C         139.1085  139.8591  157.1162 C.2     1  UNL1        0.2497
      8 O         139.0480  138.3604  157.0977 O.2     1  UNL1       -0.2727
      9 C         139.1447  140.6242  155.8266 C.3     1  UNL1        0.1799
     10 C         139.4225  147.3840  154.6110 C.ar    1  UNL1        0.0536
     11 C         138.1575  146.6795  155.0027 C.ar    1  UNL1        0.0047
     12 C         138.0972  145.1809  154.9842 C.ar    1  UNL1        0.0047
     13 C         139.3017  144.3867  154.5739 C.ar    1  UNL1        0.0536
     14 C         140.5667  145.0912  154.1822 C.ar    1  UNL1        0.0047
     15 C         140.6271  146.5898  154.2007 C.ar    1  UNL1        0.0047
     16 O         140.0069  149.6269  153.4371 O.2     1  UNL1       -0.2699
     17 C         139.4830  148.8827  154.6295 C.2     1  UNL1        0.2490
     18 N         139.0194  149.6371  155.8402 N.am    1  UNL1       -0.2760
     19 C         138.4531  149.2549  157.1756 C.3     1  UNL1        0.0955
     20 C         138.3639  150.7041  157.5525 C.3     1  UNL1        0.0430
     21 C         138.9303  151.0863  156.2172 C.3     1  UNL1        0.0955
     22 C         139.0965  139.8275  159.7141 C.ar    1  UNL1        0.0541
     23 C         140.3254  139.1176  160.1998 C.ar    1  UNL1        0.0180
     24 C         140.2892  138.3524  161.4895 C.ar    1  UNL1        0.0382
     25 C         139.0241  138.2972  162.2935 C.ar    1  UNL1        0.1385
     26 C         137.7952  139.0071  161.8078 C.ar    1  UNL1        0.0382
     27 C         137.8314  139.7722  160.5181 C.ar    1  UNL1        0.0180
     28 O         138.9879  137.5321  163.5831 O.3     1  UNL1       -0.4791
     29 C         139.2783  138.2309  164.8782 C.3     1  UNL1        0.1687
     30 C         138.2006  138.3734  165.9117 C.3     1  UNL1        0.0609
     31 C         138.4911  139.0722  167.2068 C.3     1  UNL1        0.0758
     32 N         139.8593  139.6286  167.4684 N.3     1  UNL1       -0.2737
     33 C         140.9371  139.4862  166.4348 C.3     1  UNL1        0.0758
     34 C         140.6466  138.7873  165.1397 C.3     1  UNL1        0.0609
     35 C         140.1497  140.3274  168.7635 C.3     1  UNL1        0.0575
     36 C         139.9641  141.7232  169.2804 C.3     1  UNL1        0.0160
     37 C         140.5605  141.3157  170.5950 C.3     1  UNL1        0.0028
     38 C         140.7462  139.9199  170.0781 C.3     1  UNL1        0.0160
@<TRIPOS>BOND
     1    16    17    2
     2    17    10    1
     3    10    11   ar
     4    11    12   ar
     5    12    13   ar
     6    13     1    1
     7     1     2    2
     8     1     3   am
     9     3     4    1
    10     4     5    1
    11     5     6    1
    12     6    22    1
    13    22    23   ar
    14    23    24   ar
    15    24    25   ar
    16    25    28    1
    17    28    29    1
    18    29    30    1
    19    30    31    1
    20    31    32    1
    21    32    35    1
    22    35    36    1
    23    36    37    1
    24    37    38    1
    25    32    33    1
    26    33    34    1
    27    25    26   ar
    28    26    27   ar
    29     6     7   am
    30     7     8    2
    31     7     9    1
    32    13    14   ar
    33    14    15   ar
    34    17    18   am
    35    18    19    1
    36    19    20    1
    37    20    21    1
    38    15    10   ar
    39    21    18    1
    40     9     3    1
    41    27    22   ar
    42    34    29    1
    43    38    35    1
@<TRIPOS>MOLECULE
*****
 38 43 0 0 0
SMALL
GASTEIGER

@<TRIPOS>ATOM
      1 C         140.4852  144.4446  162.3276 C.2     1  UNL1        0.2494
      2 O         139.7383  145.7398  162.2067 O.2     1  UNL1       -0.2699
      3 N         141.3553  143.9725  161.2006 N.am    1  UNL1       -0.2660
      4 C         142.1021  142.6773  161.3214 C.3     1  UNL1        0.1160
      5 C         142.9723  142.2053  160.1944 C.3     1  UNL1        0.1197
      6 N         143.0955  143.0285  158.9466 N.am    1  UNL1       -0.2555
      7 C         142.3486  144.3237  158.8257 C.2     1  UNL1        0.2497
      8 O         142.4718  145.1469  157.5779 O.2     1  UNL1       -0.2727
      9 C         141.4785  144.7957  159.9527 C.3     1  UNL1        0.1799
     10 C         140.1154  141.9750  166.0712 C.ar    1  UNL1        0.0536
     11 C         139.0055  141.9783  165.0622 C.ar    1  UNL1        0.0047
     12 C         139.1288  142.8015  163.8144 C.ar    1  UNL1        0.0047
     13 C         140.3620  143.6214  163.5755 C.ar    1  UNL1        0.0536
     14 C         141.4719  143.6180  164.5844 C.ar    1  UNL1        0.0047
     15 C         141.3486  142.7948  165.8323 C.ar    1  UNL1        0.0047
     16 O         139.7702  139.6715  167.2221 O.2     1  UNL1       -0.2699
     17 C         139.9922  141.1518  167.3191 C.2     1  UNL1        0.2490
     18 N         140.0909  141.8089  168.6638 N.am    1  UNL1       -0.2760
     19 C         140.3016  143.2140  169.1448 C.3     1  UNL1        0.0955
     20 C         140.2305  142.7383  170.5656 C.3     1  UNL1        0.0430
     21 C         140.0198  141.3332  170.0846 C.3     1  UNL1        0.0955
     22 C         143.9655  142.5565  157.8196 C.ar    1  UNL1        0.0541
     23 C         145.4584  142.6429  157.9377 C.ar    1  UNL1        0.0180
     24 C         146.3285  142.1709  156.8106 C.ar    1  UNL1        0.0382
     25 C         145.7057  141.6124  155.5655 C.ar    1  UNL1        0.1385
     26 C         144.2128  141.5260  155.4475 C.ar    1  UNL1        0.0382
     27 C         143.3428  141.9980  156.5744 C.ar    1  UNL1        0.0180
     28 O         146.5758  141.1404  154.4386 O.3     1  UNL1       -0.4791
     29 C         147.8882  141.8155  154.1708 C.3     1  UNL1        0.1687
     30 C         147.9748  142.9068  153.1454 C.3     1  UNL1        0.0609
     31 C         149.2873  143.5819  152.8776 C.3     1  UNL1        0.0758
     32 N         150.5131  143.1657  153.6353 N.3     1  UNL1       -0.2737
     33 C         150.4265  142.0744  154.6608 C.3     1  UNL1        0.0758
     34 C         149.1141  141.3993  154.9286 C.3     1  UNL1        0.0609
     35 C         151.8256  143.8408  153.3676 C.3     1  UNL1        0.0575
     36 C         152.6568  144.0969  152.1455 C.3     1  UNL1        0.0160
     37 C         153.6816  144.7956  152.9889 C.3     1  UNL1        0.0028
     38 C         152.8505  144.5396  154.2111 C.3     1  UNL1        0.0160
@<TRIPOS>BOND
     1    16    17    2
     2    17    10    1
     3    10    11   ar
     4    11    12   ar
     5    12    13   ar
     6    13     1    1
     7     1     2    2
     8     1     3   am
     9     3     4    1
    10     4     5    1
    11     5     6    1
    12     6    22    1
    13    22    23   ar
    14    23    24   ar
    15    24    25   ar
    16    25    28    1
    17    28    29    1
    18    29    30    1
    19    30    31    1
    20    31    32    1
    21    32    35    1
    22    35    36    1
    23    36    37    1
    24    37    38    1
    25    32    33    1
    26    33    34    1
    27    25    26   ar
    28    26    27   ar
    29     6     7   am
    30     7     8    2
    31     7     9    1
    32    13    14   ar
    33    14    15   ar
    34    17    18   am
    35    18    19    1
    36    19    20    1
    37    20    21    1
    38    15    10   ar
    39    21    18    1
    40     9     3    1
    41    27    22   ar
    42    34    29    1
    43    38    35    1
