@<TRIPOS>MOLECULE
*****
 35 39 0 0 0
SMALL
GASTEIGER

@<TRIPOS>ATOM
      1 N         139.4458  140.4285  163.5466 N.3     1  UNL1       -0.2679
      2 C         140.6617  139.6712  163.1016 C.3     1  UNL1        0.0978
      3 C         140.5120  138.4465  162.2486 C.3     1  UNL1        0.0224
      4 C         141.7279  137.6892  161.8035 C.3     1  UNL1        0.0065
      5 C         143.0936  138.1566  162.2116 C.3     1  UNL1        0.0277
      6 C         143.2433  139.3813  163.0646 C.ar    1  UNL1       -0.0073
      7 C         144.6089  139.8487  163.4727 C.ar    1  UNL1       -0.0015
      8 C         144.7587  141.0734  164.3257 C.ar    1  UNL1        0.0203
      9 C         143.5428  141.8307  164.7707 C.ar    1  UNL1        0.0985
     10 N         142.1772  141.3633  164.3627 N.ar    1  UNL1       -0.2471
     11 C         142.0274  140.1386  163.5096 C.ar    1  UNL1        0.0695
     12 C         138.8226  140.1310  164.8783 C.3     1  UNL1        0.0886
     13 C         141.1011  141.8220  171.1392 C.ar    1  UNL1        0.0204
     14 C         140.5729  140.4185  171.1714 C.ar    1  UNL1        0.0984
     15 N         140.0116  139.7996  169.9256 N.ar    1  UNL1       -0.2484
     16 C         139.9785  140.5842  168.6477 C.ar    1  UNL1        0.0577
     17 C         140.5066  141.9877  168.6155 C.ar    1  UNL1        0.0073
     18 C         141.0680  142.6066  169.8612 C.ar    1  UNL1       -0.0002
     19 C         140.4735  142.7724  167.3375 C.3     1  UNL1        0.0968
     20 N         139.9122  142.1535  166.0917 N.3     1  UNL1       -0.2934
     21 C         139.3840  140.7499  166.1240 C.3     1  UNL1        0.0764
     22 C         139.4171  139.9653  167.4020 C.3     1  UNL1        0.0626
     23 H         140.6550  142.1726  165.3930 H       1  UNL1        0.1236
     24 C         138.8530  141.4832  162.6600 C.3     1  UNL1        0.0725
     25 C         137.7159  142.3268  163.1551 C.3     1  UNL1        0.0188
     26 C         137.8008  143.8223  163.0742 C.3     1  UNL1        0.0185
     27 C         138.7776  144.5657  163.9363 C.3     1  UNL1        0.0686
     28 N         139.7397  145.5347  163.3155 N.3     1  UNL1       -0.2984
     29 H         139.8698  146.2914  163.9869 H       1  UNL1        0.1232
     30 C         141.1088  145.0761  162.9093 C.3     1  UNL1        0.0590
     31 C         141.2830  144.2288  161.6838 C.3     1  UNL1        0.0478
     32 C         142.6522  143.7701  161.2775 C.3     1  UNL1        0.1435
     33 O         143.8472  144.1588  162.0967 O.3     1  UNL1       -0.3537
     34 C         143.6729  145.0061  163.3222 C.3     1  UNL1        0.1435
     35 C         142.3038  145.4647  163.7285 C.3     1  UNL1        0.0478
@<TRIPOS>BOND
     1    13    14   ar
     2    14    15   ar
     3    15    16   ar
     4    16    17   ar
     5    17    18   ar
     6    17    19    1
     7    19    20    1
     8    20    21    1
     9    21    12    1
    10    12     1    1
    11     1    24    1
    12    24    25    1
    13    25    26    1
    14    26    27    1
    15    27    28    1
    16    28    30    1
    17    30    31    1
    18    31    32    1
    19    32    33    1
    20    33    34    1
    21    34    35    1
    22     2     1    1
    23     2     3    1
    24     3     4    1
    25     4     5    1
    26     5     6    1
    27     6     7   ar
    28     7     8   ar
    29     8     9   ar
    30     9    10   ar
    31    10    11   ar
    32    21    22    1
    33    18    13   ar
    34    35    30    1
    35    11     2    1
    36    22    16    1
    37    11     6   ar
    38    20    23    1
    39    28    29    1
@<TRIPOS>MOLECULE
*****
 35 39 0 0 0
SMALL
GASTEIGER

@<TRIPOS>ATOM
      1 N         141.7366  140.4345  163.3713 N.3     1  UNL1       -0.2679
      2 C         140.5078  141.0683  162.7895 C.3     1  UNL1        0.0978
      3 C         139.9869  140.6120  161.4589 C.3     1  UNL1        0.0224
      4 C         138.7581  141.2458  160.8771 C.3     1  UNL1        0.0065
      5 C         138.0503  142.3359  161.6259 C.3     1  UNL1        0.0277
      6 C         138.5713  142.7923  162.9564 C.ar    1  UNL1       -0.0073
      7 C         137.8635  143.8824  163.7052 C.ar    1  UNL1       -0.0015
      8 C         138.3845  144.3388  165.0357 C.ar    1  UNL1        0.0203
      9 C         139.6132  143.7050  165.6175 C.ar    1  UNL1        0.0985
     10 N         140.3210  142.6149  164.8688 N.ar    1  UNL1       -0.2471
     11 C         139.8000  142.1585  163.5382 C.ar    1  UNL1        0.0695
     12 C         141.6069  139.2880  164.3298 C.3     1  UNL1        0.0886
     13 C         141.0925  140.4754  171.0808 C.ar    1  UNL1        0.0204
     14 C         142.5425  140.3899  170.7063 C.ar    1  UNL1        0.0984
     15 N         142.9353  140.1354  169.2813 N.ar    1  UNL1       -0.2484
     16 C         141.8783  139.9663  168.2306 C.ar    1  UNL1        0.0577
     17 C         140.4283  140.0517  168.6050 C.ar    1  UNL1        0.0073
     18 C         140.0354  140.3063  170.0301 C.ar    1  UNL1       -0.0002
     19 C         139.3711  139.8826  167.5544 C.3     1  UNL1        0.0968
     20 N         139.7640  139.6280  166.1293 N.3     1  UNL1       -0.2934
     21 C         141.2140  139.5426  165.7549 C.3     1  UNL1        0.0764
     22 C         142.2711  139.7117  166.8055 C.3     1  UNL1        0.0626
     23 H         139.3603  140.3819  165.5734 H       1  UNL1        0.1236
     24 C         143.0950  140.9473  162.9946 C.3     1  UNL1        0.0725
     25 C         144.0827  141.3098  164.0637 C.3     1  UNL1        0.0188
     26 C         144.3350  142.7510  164.3942 C.3     1  UNL1        0.0185
     27 C         143.9555  143.8225  163.4155 C.3     1  UNL1        0.0686
     28 N         142.7070  144.6259  163.6297 N.3     1  UNL1       -0.2984
     29 H         143.0012  145.5441  163.9626 H       1  UNL1        0.1232
     30 C         141.7617  144.8614  162.4892 C.3     1  UNL1        0.0590
     31 C         141.9147  144.0840  161.2155 C.3     1  UNL1        0.0478
     32 C         140.9694  144.3194  160.0749 C.3     1  UNL1        0.1435
     33 O         139.8710  145.3322  160.2080 O.3     1  UNL1       -0.3537
     34 C         139.7179  146.1096  161.4818 C.3     1  UNL1        0.1435
     35 C         140.6633  145.8742  162.6223 C.3     1  UNL1        0.0478
@<TRIPOS>BOND
     1    13    14   ar
     2    14    15   ar
     3    15    16   ar
     4    16    17   ar
     5    17    18   ar
     6    17    19    1
     7    19    20    1
     8    20    21    1
     9    21    12    1
    10    12     1    1
    11     1    24    1
    12    24    25    1
    13    25    26    1
    14    26    27    1
    15    27    28    1
    16    28    30    1
    17    30    31    1
    18    31    32    1
    19    32    33    1
    20    33    34    1
    21    34    35    1
    22     2     1    1
    23     2     3    1
    24     3     4    1
    25     4     5    1
    26     5     6    1
    27     6     7   ar
    28     7     8   ar
    29     8     9   ar
    30     9    10   ar
    31    10    11   ar
    32    21    22    1
    33    18    13   ar
    34    35    30    1
    35    11     2    1
    36    22    16    1
    37    11     6   ar
    38    20    23    1
    39    28    29    1
@<TRIPOS>MOLECULE
*****
 35 39 0 0 0
SMALL
GASTEIGER

@<TRIPOS>ATOM
      1 N         140.5044  139.6041  163.6021 N.3     1  UNL1       -0.2679
      2 C         141.9453  139.8289  163.9531 C.3     1  UNL1        0.0978
      3 C         142.7426  138.7293  164.5897 C.3     1  UNL1        0.0224
      4 C         144.1835  138.9541  164.9407 C.3     1  UNL1        0.0065
      5 C         144.8272  140.2785  164.6550 C.3     1  UNL1        0.0277
      6 C         144.0300  141.3781  164.0184 C.ar    1  UNL1       -0.0073
      7 C         144.6736  142.7025  163.7327 C.ar    1  UNL1       -0.0015
      8 C         143.8764  143.8021  163.0961 C.ar    1  UNL1        0.0203
      9 C         142.4355  143.5773  162.7451 C.ar    1  UNL1        0.0985
     10 N         141.7918  142.2529  163.0308 N.ar    1  UNL1       -0.2471
     11 C         142.5890  141.1533  163.6674 C.ar    1  UNL1        0.0695
     12 C         139.4290  139.9539  164.5877 C.3     1  UNL1        0.0886
     13 C         140.8976  142.0334  170.9727 C.ar    1  UNL1        0.0204
     14 C         140.6065  140.5621  170.9903 C.ar    1  UNL1        0.0984
     15 N         140.2545  139.8519  169.7168 N.ar    1  UNL1       -0.2484
     16 C         140.1937  140.6131  168.4257 C.ar    1  UNL1        0.0577
     17 C         140.4849  142.0844  168.4082 C.ar    1  UNL1        0.0073
     18 C         140.8369  142.7946  169.6816 C.ar    1  UNL1       -0.0002
     19 C         140.4241  142.8456  167.1170 C.3     1  UNL1        0.0968
     20 N         140.0722  142.1355  165.8435 N.3     1  UNL1       -0.2934
     21 C         139.7810  140.6640  165.8612 C.3     1  UNL1        0.0764
     22 C         139.8418  139.9029  167.1522 C.3     1  UNL1        0.0626
     23 H         140.8545  142.2732  165.2037 H       1  UNL1        0.1236
     24 C         140.1388  139.0295  162.2657 C.3     1  UNL1        0.0725
     25 C         139.0856  137.9658  162.1693 C.3     1  UNL1        0.0188
     26 C         137.7192  138.3078  161.6536 C.3     1  UNL1        0.0185
     27 C         137.4446  139.6781  161.1085 C.3     1  UNL1        0.0686
     28 N         137.1425  140.8108  162.0442 N.3     1  UNL1       -0.2984
     29 H         137.3299  140.4713  162.9876 H       1  UNL1        0.1232
     30 C         137.8684  142.1156  161.9013 C.3     1  UNL1        0.0590
     31 C         137.7411  143.1651  162.9654 C.3     1  UNL1        0.0478
     32 C         138.4670  144.4700  162.8226 C.3     1  UNL1        0.1435
     33 O         139.3203  144.7253  161.6156 O.3     1  UNL1       -0.3537
     34 C         139.4476  143.6757  160.5515 C.3     1  UNL1        0.1435
     35 C         138.7217  142.3709  160.6944 C.3     1  UNL1        0.0478
@<TRIPOS>BOND
     1    13    14   ar
     2    14    15   ar
     3    15    16   ar
     4    16    17   ar
     5    17    18   ar
     6    17    19    1
     7    19    20    1
     8    20    21    1
     9    21    12    1
    10    12     1    1
    11     1    24    1
    12    24    25    1
    13    25    26    1
    14    26    27    1
    15    27    28    1
    16    28    30    1
    17    30    31    1
    18    31    32    1
    19    32    33    1
    20    33    34    1
    21    34    35    1
    22     2     1    1
    23     2     3    1
    24     3     4    1
    25     4     5    1
    26     5     6    1
    27     6     7   ar
    28     7     8   ar
    29     8     9   ar
    30     9    10   ar
    31    10    11   ar
    32    21    22    1
    33    18    13   ar
    34    35    30    1
    35    11     2    1
    36    22    16    1
    37    11     6   ar
    38    20    23    1
    39    28    29    1
@<TRIPOS>MOLECULE
*****
 35 39 0 0 0
SMALL
GASTEIGER

@<TRIPOS>ATOM
      1 N         139.2254  140.5223  164.0602 N.3     1  UNL1       -0.2679
      2 C         139.1086  141.9925  163.7864 C.3     1  UNL1        0.0978
      3 C         137.7779  142.5854  163.4291 C.3     1  UNL1        0.0224
      4 C         137.6611  144.0556  163.1553 C.3     1  UNL1        0.0065
      5 C         138.8750  144.9328  163.2389 C.3     1  UNL1        0.0277
      6 C         140.2057  144.3399  163.5962 C.ar    1  UNL1       -0.0073
      7 C         141.4195  145.2171  163.6798 C.ar    1  UNL1       -0.0015
      8 C         142.7502  144.6241  164.0371 C.ar    1  UNL1        0.0203
      9 C         142.8671  143.1540  164.3109 C.ar    1  UNL1        0.0985
     10 N         141.6532  142.2768  164.2273 N.ar    1  UNL1       -0.2471
     11 C         140.3225  142.8697  163.8700 C.ar    1  UNL1        0.0695
     12 C         139.2246  140.0202  165.4737 C.3     1  UNL1        0.0886
     13 C         143.1884  142.9012  170.2944 C.ar    1  UNL1        0.0204
     14 C         141.8290  143.5339  170.3339 C.ar    1  UNL1        0.0984
     15 N         140.7643  143.0842  169.3777 N.ar    1  UNL1       -0.2484
     16 C         141.0591  142.0019  168.3819 C.ar    1  UNL1        0.0577
     17 C         142.4185  141.3692  168.3424 C.ar    1  UNL1        0.0073
     18 C         143.4832  141.8188  169.2986 C.ar    1  UNL1       -0.0002
     19 C         142.7134  140.2867  167.3466 C.3     1  UNL1        0.0968
     20 N         141.6487  139.8371  166.3904 N.3     1  UNL1       -0.2934
     21 C         140.2892  140.4699  166.4300 C.3     1  UNL1        0.0764
     22 C         139.9945  141.5522  167.4257 C.3     1  UNL1        0.0626
     23 H         141.5134  138.8386  166.5486 H       1  UNL1        0.1236
     24 C         139.3431  139.5542  162.9205 C.3     1  UNL1        0.0725
     25 C         139.3469  138.0782  163.1876 C.3     1  UNL1        0.0188
     26 C         140.6477  137.3420  163.3131 C.3     1  UNL1        0.0185
     27 C         141.9121  137.9594  162.7932 C.3     1  UNL1        0.0686
     28 N         142.9406  138.4826  163.7516 N.3     1  UNL1       -0.2984
     29 H         143.5292  137.6916  164.0126 H       1  UNL1        0.1232
     30 C         143.8627  139.5887  163.3321 C.3     1  UNL1        0.0590
     31 C         144.8994  140.1034  164.2862 C.3     1  UNL1        0.0478
     32 C         145.8216  141.2095  163.8667 C.3     1  UNL1        0.1435
     33 O         145.7072  141.8010  162.4930 O.3     1  UNL1       -0.3537
     34 C         144.6705  141.2862  161.5388 C.3     1  UNL1        0.1435
     35 C         143.7483  140.1801  161.9583 C.3     1  UNL1        0.0478
@<TRIPOS>BOND
     1    13    14   ar
     2    14    15   ar
     3    15    16   ar
     4    16    17   ar
     5    17    18   ar
     6    17    19    1
     7    19    20    1
     8    20    21    1
     9    21    12    1
    10    12     1    1
    11     1    24    1
    12    24    25    1
    13    25    26    1
    14    26    27    1
    15    27    28    1
    16    28    30    1
    17    30    31    1
    18    31    32    1
    19    32    33    1
    20    33    34    1
    21    34    35    1
    22     2     1    1
    23     2     3    1
    24     3     4    1
    25     4     5    1
    26     5     6    1
    27     6     7   ar
    28     7     8   ar
    29     8     9   ar
    30     9    10   ar
    31    10    11   ar
    32    21    22    1
    33    18    13   ar
    34    35    30    1
    35    11     2    1
    36    22    16    1
    37    11     6   ar
    38    20    23    1
    39    28    29    1
@<TRIPOS>MOLECULE
*****
 35 39 0 0 0
SMALL
GASTEIGER

@<TRIPOS>ATOM
      1 N         139.5321  142.2252  163.9536 N.3     1  UNL1       -0.2679
      2 C         139.3534  140.7767  164.3000 C.3     1  UNL1        0.0978
      3 C         138.3167  140.3681  165.3042 C.3     1  UNL1        0.0224
      4 C         138.1381  138.9195  165.6506 C.3     1  UNL1        0.0065
      5 C         138.9960  137.8798  164.9929 C.3     1  UNL1        0.0277
      6 C         140.0327  138.2884  163.9887 C.ar    1  UNL1       -0.0073
      7 C         140.8907  137.2486  163.3310 C.ar    1  UNL1       -0.0015
      8 C         141.9274  137.6573  162.3268 C.ar    1  UNL1        0.0203
      9 C         142.1061  139.1057  161.9804 C.ar    1  UNL1        0.0985
     10 N         141.2481  140.1455  162.6381 N.ar    1  UNL1       -0.2471
     11 C         140.2114  139.7368  163.6423 C.ar    1  UNL1        0.0695
     12 C         140.4936  143.0703  164.7355 C.3     1  UNL1        0.0886
     13 C         142.0828  141.2390  171.1676 C.ar    1  UNL1        0.0204
     14 C         140.7809  141.9839  171.1766 C.ar    1  UNL1        0.0984
     15 N         140.2027  142.4991  169.8920 N.ar    1  UNL1       -0.2484
     16 C         140.9264  142.2695  168.5984 C.ar    1  UNL1        0.0577
     17 C         142.2283  141.5246  168.5894 C.ar    1  UNL1        0.0073
     18 C         142.8065  141.0093  169.8740 C.ar    1  UNL1       -0.0002
     19 C         142.9520  141.2949  167.2957 C.3     1  UNL1        0.0968
     20 N         142.3738  141.8101  166.0111 N.3     1  UNL1       -0.2934
     21 C         141.0718  142.5550  166.0201 C.3     1  UNL1        0.0764
     22 C         140.3482  142.7847  167.3138 C.3     1  UNL1        0.0626
     23 H         142.2470  141.0029  165.4006 H       1  UNL1        0.1236
     24 C         138.7493  142.8286  162.8253 C.3     1  UNL1        0.0725
     25 C         138.4232  144.2926  162.8375 C.3     1  UNL1        0.0188
     26 C         139.3911  145.2815  162.2584 C.3     1  UNL1        0.0185
     27 C         140.3443  144.8554  161.1814 C.3     1  UNL1        0.0686
     28 N         141.7943  145.2287  161.2726 N.3     1  UNL1       -0.2984
     29 H         141.8288  146.2160  161.5267 H       1  UNL1        0.1232
     30 C         142.6967  144.5042  162.2268 C.3     1  UNL1        0.0590
     31 C         143.1655  143.1155  161.9079 C.3     1  UNL1        0.0478
     32 C         144.0680  142.3909  162.8622 C.3     1  UNL1        0.1435
     33 O         144.5017  143.0551  164.1353 O.3     1  UNL1       -0.3537
     34 C         144.0329  144.4439  164.4541 C.3     1  UNL1        0.1435
     35 C         143.1305  145.1684  163.4999 C.3     1  UNL1        0.0478
@<TRIPOS>BOND
     1    13    14   ar
     2    14    15   ar
     3    15    16   ar
     4    16    17   ar
     5    17    18   ar
     6    17    19    1
     7    19    20    1
     8    20    21    1
     9    21    12    1
    10    12     1    1
    11     1    24    1
    12    24    25    1
    13    25    26    1
    14    26    27    1
    15    27    28    1
    16    28    30    1
    17    30    31    1
    18    31    32    1
    19    32    33    1
    20    33    34    1
    21    34    35    1
    22     2     1    1
    23     2     3    1
    24     3     4    1
    25     4     5    1
    26     5     6    1
    27     6     7   ar
    28     7     8   ar
    29     8     9   ar
    30     9    10   ar
    31    10    11   ar
    32    21    22    1
    33    18    13   ar
    34    35    30    1
    35    11     2    1
    36    22    16    1
    37    11     6   ar
    38    20    23    1
    39    28    29    1
@<TRIPOS>MOLECULE
*****
 35 39 0 0 0
SMALL
GASTEIGER

@<TRIPOS>ATOM
      1 N         142.5592  139.5707  162.8017 N.3     1  UNL1       -0.2679
      2 C         141.0845  139.3670  162.6181 C.3     1  UNL1        0.0978
      3 C         140.5812  138.1829  161.8470 C.3     1  UNL1        0.0224
      4 C         139.1064  137.9793  161.6635 C.3     1  UNL1        0.0065
      5 C         138.1350  138.9597  162.2509 C.3     1  UNL1        0.0277
      6 C         138.6384  140.1438  163.0220 C.ar    1  UNL1       -0.0073
      7 C         137.6670  141.1243  163.6095 C.ar    1  UNL1       -0.0015
      8 C         138.1704  142.3084  164.3805 C.ar    1  UNL1        0.0203
      9 C         139.6451  142.5120  164.5641 C.ar    1  UNL1        0.0985
     10 N         140.6164  141.5316  163.9767 N.ar    1  UNL1       -0.2471
     11 C         140.1131  140.3475  163.2056 C.ar    1  UNL1        0.0695
     12 C         143.2336  139.0856  164.0507 C.3     1  UNL1        0.0886
     13 C         142.6203  141.5696  170.4306 C.ar    1  UNL1        0.0204
     14 C         142.5342  140.0728  170.4761 C.ar    1  UNL1        0.0984
     15 N         142.6397  139.2766  169.2092 N.ar    1  UNL1       -0.2484
     16 C         142.8312  139.9773  167.8968 C.ar    1  UNL1        0.0577
     17 C         142.9173  141.4741  167.8514 C.ar    1  UNL1        0.0073
     18 C         142.8118  142.2702  169.1182 C.ar    1  UNL1       -0.0002
     19 C         143.1088  142.1748  166.5389 C.3     1  UNL1        0.0968
     20 N         143.2142  141.3786  165.2720 N.3     1  UNL1       -0.2934
     21 C         143.1281  139.8817  165.3176 C.3     1  UNL1        0.0764
     22 C         142.9366  139.1811  166.6300 C.3     1  UNL1        0.0626
     23 H         144.1154  141.6091  164.8536 H       1  UNL1        0.1236
     24 C         143.3596  140.2595  161.7363 C.3     1  UNL1        0.0725
     25 C         144.4899  141.1689  162.1175 C.3     1  UNL1        0.0188
     26 C         144.5079  142.5876  161.6307 C.3     1  UNL1        0.0185
     27 C         143.9274  143.6793  162.4800 C.3     1  UNL1        0.0686
     28 N         143.0923  144.7550  161.8511 N.3     1  UNL1       -0.2984
     29 H         143.4290  144.8679  160.8949 H       1  UNL1        0.1232
     30 C         141.6029  144.5972  161.7699 C.3     1  UNL1        0.0590
     31 C         140.7064  145.5579  162.4933 C.3     1  UNL1        0.0478
     32 C         139.2169  145.4001  162.4121 C.3     1  UNL1        0.1435
     33 O         138.6239  144.2815  161.6076 O.3     1  UNL1       -0.3537
     34 C         139.5205  143.3208  160.8842 C.3     1  UNL1        0.1435
     35 C         141.0099  143.4786  160.9654 C.3     1  UNL1        0.0478
@<TRIPOS>BOND
     1    13    14   ar
     2    14    15   ar
     3    15    16   ar
     4    16    17   ar
     5    17    18   ar
     6    17    19    1
     7    19    20    1
     8    20    21    1
     9    21    12    1
    10    12     1    1
    11     1    24    1
    12    24    25    1
    13    25    26    1
    14    26    27    1
    15    27    28    1
    16    28    30    1
    17    30    31    1
    18    31    32    1
    19    32    33    1
    20    33    34    1
    21    34    35    1
    22     2     1    1
    23     2     3    1
    24     3     4    1
    25     4     5    1
    26     5     6    1
    27     6     7   ar
    28     7     8   ar
    29     8     9   ar
    30     9    10   ar
    31    10    11   ar
    32    21    22    1
    33    18    13   ar
    34    35    30    1
    35    11     2    1
    36    22    16    1
    37    11     6   ar
    38    20    23    1
    39    28    29    1
@<TRIPOS>MOLECULE
*****
 35 39 0 0 0
SMALL
GASTEIGER

@<TRIPOS>ATOM
      1 N         138.5666  140.3740  163.8063 N.3     1  UNL1       -0.2679
      2 C         138.7935  141.8338  164.0658 C.3     1  UNL1        0.0978
      3 C         137.6454  142.7115  164.4678 C.3     1  UNL1        0.0224
      4 C         137.8723  144.1714  164.7272 C.3     1  UNL1        0.0065
      5 C         139.2473  144.7536  164.5847 C.3     1  UNL1        0.0277
      6 C         140.3954  143.8760  164.1827 C.ar    1  UNL1       -0.0073
      7 C         141.7704  144.4582  164.0401 C.ar    1  UNL1       -0.0015
      8 C         142.9185  143.5806  163.6382 C.ar    1  UNL1        0.0203
      9 C         142.6917  142.1207  163.3787 C.ar    1  UNL1        0.0985
     10 N         141.3167  141.5385  163.5213 N.ar    1  UNL1       -0.2471
     11 C         140.1685  142.4161  163.9232 C.ar    1  UNL1        0.0695
     12 C         138.6161  139.3940  164.9410 C.3     1  UNL1        0.0886
     13 C         142.1972  140.4573  170.7112 C.ar    1  UNL1        0.0204
     14 C         140.7377  140.6547  170.9956 C.ar    1  UNL1        0.0984
     15 N         139.7296  140.4815  169.8985 N.ar    1  UNL1       -0.2484
     16 C         140.1809  140.1109  168.5169 C.ar    1  UNL1        0.0577
     17 C         141.6404  139.9136  168.2324 C.ar    1  UNL1        0.0073
     18 C         142.6485  140.0867  169.3296 C.ar    1  UNL1       -0.0002
     19 C         142.0918  139.5430  166.8507 C.3     1  UNL1        0.0968
     20 N         141.0837  139.3698  165.7536 N.3     1  UNL1       -0.2934
     21 C         139.6242  139.5672  166.0381 C.3     1  UNL1        0.0764
     22 C         139.1728  139.9378  167.4197 C.3     1  UNL1        0.0626
     23 H         141.1894  138.4173  165.4042 H       1  UNL1        0.1236
     24 C         138.2903  139.8940  162.4123 C.3     1  UNL1        0.0725
     25 C         139.3429  139.1383  161.6568 C.3     1  UNL1        0.0188
     26 C         139.8752  137.8462  162.2019 C.3     1  UNL1        0.0185
     27 C         141.3278  137.7233  162.5557 C.3     1  UNL1        0.0686
     28 N         142.3042  137.1994  161.5447 N.3     1  UNL1       -0.2984
     29 H         141.8634  136.3947  161.0991 H       1  UNL1        0.1232
     30 C         142.7931  138.0910  160.4421 C.3     1  UNL1        0.0590
     31 C         143.5301  139.3554  160.7711 C.3     1  UNL1        0.0478
     32 C         144.0191  140.2471  159.6685 C.3     1  UNL1        0.1435
     33 O         143.7710  139.8745  158.2368 O.3     1  UNL1       -0.3537
     34 C         143.0340  138.6100  157.9078 C.3     1  UNL1        0.1435
     35 C         142.5451  137.7184  159.0105 C.3     1  UNL1        0.0478
@<TRIPOS>BOND
     1    13    14   ar
     2    14    15   ar
     3    15    16   ar
     4    16    17   ar
     5    17    18   ar
     6    17    19    1
     7    19    20    1
     8    20    21    1
     9    21    12    1
    10    12     1    1
    11     1    24    1
    12    24    25    1
    13    25    26    1
    14    26    27    1
    15    27    28    1
    16    28    30    1
    17    30    31    1
    18    31    32    1
    19    32    33    1
    20    33    34    1
    21    34    35    1
    22     2     1    1
    23     2     3    1
    24     3     4    1
    25     4     5    1
    26     5     6    1
    27     6     7   ar
    28     7     8   ar
    29     8     9   ar
    30     9    10   ar
    31    10    11   ar
    32    21    22    1
    33    18    13   ar
    34    35    30    1
    35    11     2    1
    36    22    16    1
    37    11     6   ar
    38    20    23    1
    39    28    29    1
@<TRIPOS>MOLECULE
*****
 35 39 0 0 0
SMALL
GASTEIGER

@<TRIPOS>ATOM
      1 N         142.7714  140.5631  165.6389 N.3     1  UNL1       -0.2679
      2 C         141.5299  140.2925  166.4359 C.3     1  UNL1        0.0978
      3 C         140.2535  139.9300  165.7363 C.3     1  UNL1        0.0224
      4 C         139.0120  139.6593  166.5335 C.3     1  UNL1        0.0065
      5 C         139.0468  139.7512  168.0302 C.3     1  UNL1        0.0277
      6 C         140.3232  140.1136  168.7299 C.ar    1  UNL1       -0.0073
      7 C         140.3581  140.2054  170.2266 C.ar    1  UNL1       -0.0015
      8 C         141.6344  140.5679  170.9263 C.ar    1  UNL1        0.0203
      9 C         142.8759  140.8386  170.1292 C.ar    1  UNL1        0.0985
     10 N         142.8410  140.7468  168.6324 N.ar    1  UNL1       -0.2471
     11 C         141.5647  140.3843  167.9328 C.ar    1  UNL1        0.0695
     12 C         143.2058  141.9761  165.3838 C.3     1  UNL1        0.0886
     13 C         140.1775  145.7904  160.5330 C.ar    1  UNL1        0.0204
     14 C         141.3671  145.0955  159.9397 C.ar    1  UNL1        0.0984
     15 N         142.2106  144.1936  160.7912 N.ar    1  UNL1       -0.2484
     16 C         141.8646  143.9867  162.2360 C.ar    1  UNL1        0.0577
     17 C         140.6751  144.6816  162.8293 C.ar    1  UNL1        0.0073
     18 C         139.8315  145.5835  161.9778 C.ar    1  UNL1       -0.0002
     19 C         140.3290  144.4747  164.2741 C.3     1  UNL1        0.0968
     20 N         141.1726  143.5729  165.1256 N.3     1  UNL1       -0.2934
     21 C         142.3622  142.8779  164.5323 C.3     1  UNL1        0.0764
     22 C         142.7082  143.0849  163.0875 C.3     1  UNL1        0.0626
     23 H         140.5551  142.8448  165.4849 H       1  UNL1        0.1236
     24 C         143.5785  139.4209  165.0968 C.3     1  UNL1        0.0725
     25 C         144.2482  139.5436  163.7602 C.3     1  UNL1        0.0188
     26 C         143.4459  139.3886  162.5023 C.3     1  UNL1        0.0185
     27 C         143.3878  138.0598  161.8088 C.3     1  UNL1        0.0686
     28 N         142.1555  137.2113  161.9156 N.3     1  UNL1       -0.2984
     29 H         142.1832  136.7659  162.8328 H       1  UNL1        0.1232
     30 C         140.7994  137.8378  161.7793 C.3     1  UNL1        0.0590
     31 C         139.8054  137.7250  162.8969 C.3     1  UNL1        0.0478
     32 C         138.4493  138.3515  162.7607 C.3     1  UNL1        0.1435
     33 O         138.0872  139.0907  161.5067 O.3     1  UNL1       -0.3537
     34 C         139.0813  139.2035  160.3890 C.3     1  UNL1        0.1435
     35 C         140.4374  138.5770  160.5253 C.3     1  UNL1        0.0478
@<TRIPOS>BOND
     1    13    14   ar
     2    14    15   ar
     3    15    16   ar
     4    16    17   ar
     5    17    18   ar
     6    17    19    1
     7    19    20    1
     8    20    21    1
     9    21    12    1
    10    12     1    1
    11     1    24    1
    12    24    25    1
    13    25    26    1
    14    26    27    1
    15    27    28    1
    16    28    30    1
    17    30    31    1
    18    31    32    1
    19    32    33    1
    20    33    34    1
    21    34    35    1
    22     2     1    1
    23     2     3    1
    24     3     4    1
    25     4     5    1
    26     5     6    1
    27     6     7   ar
    28     7     8   ar
    29     8     9   ar
    30     9    10   ar
    31    10    11   ar
    32    21    22    1
    33    18    13   ar
    34    35    30    1
    35    11     2    1
    36    22    16    1
    37    11     6   ar
    38    20    23    1
    39    28    29    1
@<TRIPOS>MOLECULE
*****
 35 39 0 0 0
SMALL
GASTEIGER

@<TRIPOS>ATOM
      1 N         143.3728  141.1977  163.2702 N.3     1  UNL1       -0.2679
      2 C         142.9950  142.6394  163.4398 C.3     1  UNL1        0.0978
      3 C         144.0010  143.6219  163.9619 C.3     1  UNL1        0.0224
      4 C         143.6232  145.0637  164.1314 C.3     1  UNL1        0.0065
      5 C         142.2394  145.5228  163.7789 C.3     1  UNL1        0.0277
      6 C         141.2334  144.5403  163.2568 C.ar    1  UNL1       -0.0073
      7 C         139.8497  144.9994  162.9043 C.ar    1  UNL1       -0.0015
      8 C         138.8437  144.0169  162.3822 C.ar    1  UNL1        0.0203
      9 C         139.2214  142.5752  162.2127 C.ar    1  UNL1        0.0985
     10 N         140.6052  142.1161  162.5652 N.ar    1  UNL1       -0.2471
     11 C         141.6112  143.0986  163.0873 C.ar    1  UNL1        0.0695
     12 C         142.9965  140.1952  164.3207 C.3     1  UNL1        0.0886
     13 C         140.7692  142.2959  170.4751 C.ar    1  UNL1        0.0204
     14 C         142.2653  142.1913  170.5038 C.ar    1  UNL1        0.0984
     15 N         143.0099  141.7502  169.2787 N.ar    1  UNL1       -0.2484
     16 C         142.2586  141.4138  168.0248 C.ar    1  UNL1        0.0577
     17 C         140.7625  141.5184  167.9961 C.ar    1  UNL1        0.0073
     18 C         140.0179  141.9595  169.2212 C.ar    1  UNL1       -0.0002
     19 C         140.0111  141.1820  166.7422 C.3     1  UNL1        0.0968
     20 N         140.7557  140.7409  165.5171 N.3     1  UNL1       -0.2934
     21 C         142.2519  140.6363  165.5458 C.3     1  UNL1        0.0764
     22 C         143.0032  140.9727  166.7997 C.3     1  UNL1        0.0626
     23 H         140.5209  141.4013  164.7761 H       1  UNL1        0.1236
     24 C         144.1269  140.7585  162.0502 C.3     1  UNL1        0.0725
     25 C         143.3856  140.2077  160.8682 C.3     1  UNL1        0.0188
     26 C         143.5279  138.7601  160.5017 C.3     1  UNL1        0.0185
     27 C         142.3548  137.8345  160.6329 C.3     1  UNL1        0.0686
     28 N         142.0758  137.1582  161.9424 N.3     1  UNL1       -0.2984
     29 H         142.9141  137.2652  162.5135 H       1  UNL1        0.1232
     30 C         140.9179  137.6042  162.7851 C.3     1  UNL1        0.0590
     31 C         140.7916  137.1242  164.2006 C.3     1  UNL1        0.0478
     32 C         139.6337  137.5702  165.0434 C.3     1  UNL1        0.1435
     33 O         138.6020  138.4963  164.4707 O.3     1  UNL1       -0.3537
     34 C         138.7283  138.9764  163.0552 C.3     1  UNL1        0.1435
     35 C         139.8862  138.5303  162.2124 C.3     1  UNL1        0.0478
@<TRIPOS>BOND
     1    13    14   ar
     2    14    15   ar
     3    15    16   ar
     4    16    17   ar
     5    17    18   ar
     6    17    19    1
     7    19    20    1
     8    20    21    1
     9    21    12    1
    10    12     1    1
    11     1    24    1
    12    24    25    1
    13    25    26    1
    14    26    27    1
    15    27    28    1
    16    28    30    1
    17    30    31    1
    18    31    32    1
    19    32    33    1
    20    33    34    1
    21    34    35    1
    22     2     1    1
    23     2     3    1
    24     3     4    1
    25     4     5    1
    26     5     6    1
    27     6     7   ar
    28     7     8   ar
    29     8     9   ar
    30     9    10   ar
    31    10    11   ar
    32    21    22    1
    33    18    13   ar
    34    35    30    1
    35    11     2    1
    36    22    16    1
    37    11     6   ar
    38    20    23    1
    39    28    29    1
