@<TRIPOS>MOLECULE
*****
 35 38 0 0 0
SMALL
GASTEIGER

@<TRIPOS>ATOM
      1 C         141.1819  138.5226  163.9294 C.3     1  UNL1        0.1200
      2 C         141.1349  137.2624  163.1173 C.3     1  UNL1        0.2250
      3 O         141.6967  137.2450  161.7266 O.3     1  UNL1       -0.4740
      4 C         142.3055  138.4878  161.1481 C.ar    1  UNL1        0.1346
      5 C         142.8673  138.4704  159.7573 C.ar    1  UNL1        0.0366
      6 C         143.4760  139.7133  159.1787 C.ar    1  UNL1        0.0031
      7 C         143.5230  140.9735  159.9910 C.ar    1  UNL1       -0.0001
      8 C         142.9612  140.9909  161.3816 C.ar    1  UNL1       -0.0009
      9 C         142.3525  139.7481  161.9602 C.ar    1  UNL1        0.0136
     10 C         141.7907  139.7654  163.3509 C.3     1  UNL1        0.0528
     11 C         143.0082  142.2511  162.1938 C.ar    1  UNL1        0.0026
     12 C         144.1673  142.5102  163.1100 C.ar    1  UNL1        0.0206
     13 C         144.2142  143.7705  163.9221 C.ar    1  UNL1        0.0985
     14 N         143.1021  144.7716  163.8180 N.ar    1  UNL1       -0.2457
     15 CA        141.9431  144.5126  162.9019 C.ar    1  UNL1        0.0885
     16 C         141.8961  143.2524  162.0897 C.ar    1  UNL1        0.0172
     17 C         140.8309  145.5138  162.7978 C.3     1  UNL1        0.1829
     18 O         140.5675  146.2095  161.4953 O.3     1  UNL1       -0.3760
     19 H         141.3206  146.7800  161.2754 H       1  UNL1        0.2110
     20 O         138.5138  139.7900  164.4537 O.2     1  UNL1       -0.2701
     21 C         139.2861  139.1737  165.5823 C.2     1  UNL1        0.2474
     22 N         140.6201  138.5400  165.3202 N.am    1  UNL1       -0.2986
     23 H         141.1270  138.1355  166.0609 H       1  UNL1        0.1498
     24 C         138.7243  139.1911  166.9731 C.ar    1  UNL1        0.0727
     25 C         139.3788  140.0228  168.0360 C.ar    1  UNL1        0.0109
     26 C         138.8170  140.0402  169.4267 C.ar    1  UNL1        0.0579
     27 C         137.6007  139.2259  169.7544 C.ar    1  UNL1        0.2251
     28 N         136.9462  138.3942  168.6915 N.ar    1  UNL1       -0.2100
     29 C         137.5080  138.3768  167.3009 C.ar    1  UNL1        0.1065
     30 O         137.0389  139.2433  171.1452 O.3     1  UNL1       -0.4509
     31 C         135.8015  138.4578  171.4641 C.3     1  UNL1        0.3095
     32 C         135.8015  137.4914  172.6113 C.3     1  UNL1        0.4381
     33 F         135.8016  136.5249  173.7585 F       1  UNL1       -0.1663
     34 F         137.2410  137.1690  172.3396 F       1  UNL1       -0.1663
     35 F         134.3620  137.8138  172.8829 F       1  UNL1       -0.1663
@<TRIPOS>BOND
     1    20    21    2
     2    21    22   am
     3     1    22    1
     4     1     2    1
     5     2     3    1
     6     3     4    1
     7     4     5   ar
     8     5     6   ar
     9     6     7   ar
    10     7     8   ar
    11     8    11    1
    12    11    12   ar
    13    12    13   ar
    14    13    14   ar
    15    14    15   ar
    16    15    17    1
    17    17    18    1
    18    15    16   ar
    19     8     9   ar
    20     9    10    1
    21    21    24    1
    22    24    25   ar
    23    25    26   ar
    24    26    27   ar
    25    27    30    1
    26    30    31    1
    27    31    32    1
    28    32    33    1
    29    32    34    1
    30    32    35    1
    31    27    28   ar
    32    28    29   ar
    33    10     1    1
    34    29    24   ar
    35     9     4   ar
    36    16    11   ar
    37    22    23    1
    38    18    19    1
@<TRIPOS>MOLECULE
*****
 35 38 0 0 0
SMALL
GASTEIGER

@<TRIPOS>ATOM
      1 C         142.4973  139.9194  163.4220 C.3     1  UNL1        0.1200
      2 C         143.3332  139.2196  164.4523 C.3     1  UNL1        0.2250
      3 O         143.2308  139.6149  165.8956 O.3     1  UNL1       -0.4740
      4 C         142.2926  140.7099  166.3086 C.ar    1  UNL1        0.1346
      5 C         142.1903  141.1051  167.7521 C.ar    1  UNL1        0.0366
      6 C         141.2520  142.2002  168.1651 C.ar    1  UNL1        0.0031
      7 C         140.4161  142.9000  167.1347 C.ar    1  UNL1       -0.0001
      8 C         140.5185  142.5047  165.6914 C.ar    1  UNL1       -0.0009
      9 C         141.4567  141.4097  165.2783 C.ar    1  UNL1        0.0136
     10 C         141.5591  141.0144  163.8350 C.3     1  UNL1        0.0528
     11 C         139.6826  143.2045  164.6611 C.ar    1  UNL1        0.0026
     12 C         138.2801  142.7442  164.3944 C.ar    1  UNL1        0.0206
     13 C         137.4442  143.4441  163.3640 C.ar    1  UNL1        0.0985
     14 N         138.0108  144.6041  162.6005 N.ar    1  UNL1       -0.2457
     15 CA        139.4133  145.0644  162.8672 C.ar    1  UNL1        0.0885
     16 C         140.2492  144.3647  163.8975 C.ar    1  UNL1        0.0172
     17 C         139.9799  146.2246  162.1035 C.3     1  UNL1        0.1829
     18 O         139.1529  146.9084  161.0555 O.3     1  UNL1       -0.3760
     19 H         138.9894  146.2953  160.3217 H       1  UNL1        0.2110
     20 O         140.2075  138.5161  162.0850 O.2     1  UNL1       -0.2701
     21 C         141.4547  138.8225  161.3101 C.2     1  UNL1        0.2474
     22 N         142.5996  139.5242  161.9785 N.am    1  UNL1       -0.2986
     23 H         143.4182  139.7253  161.4699 H       1  UNL1        0.1498
     24 C         141.5571  138.4273  159.8666 C.ar    1  UNL1        0.0727
     25 C         140.3292  138.4088  159.0053 C.ar    1  UNL1        0.0109
     26 C         140.4316  138.0136  157.5619 C.ar    1  UNL1        0.0579
     27 C         141.7618  137.6369  156.9800 C.ar    1  UNL1        0.2251
     28 N         142.9897  137.6554  157.8414 N.ar    1  UNL1       -0.2100
     29 C         142.8873  138.0506  159.2847 C.ar    1  UNL1        0.1065
     30 O         141.8642  137.2417  155.5365 O.3     1  UNL1       -0.4509
     31 C         142.6435  136.0208  155.1467 C.3     1  UNL1        0.3095
     32 C         142.5102  134.7589  155.9465 C.3     1  UNL1        0.4381
     33 F         142.3770  133.4970  156.7465 F       1  UNL1       -0.1663
     34 F         143.9365  134.8906  156.3919 F       1  UNL1       -0.1663
     35 F         141.0840  134.6272  155.5012 F       1  UNL1       -0.1663
@<TRIPOS>BOND
     1    20    21    2
     2    21    22   am
     3     1    22    1
     4     1     2    1
     5     2     3    1
     6     3     4    1
     7     4     5   ar
     8     5     6   ar
     9     6     7   ar
    10     7     8   ar
    11     8    11    1
    12    11    12   ar
    13    12    13   ar
    14    13    14   ar
    15    14    15   ar
    16    15    17    1
    17    17    18    1
    18    15    16   ar
    19     8     9   ar
    20     9    10    1
    21    21    24    1
    22    24    25   ar
    23    25    26   ar
    24    26    27   ar
    25    27    30    1
    26    30    31    1
    27    31    32    1
    28    32    33    1
    29    32    34    1
    30    32    35    1
    31    27    28   ar
    32    28    29   ar
    33    10     1    1
    34    29    24   ar
    35     9     4   ar
    36    16    11   ar
    37    22    23    1
    38    18    19    1
@<TRIPOS>MOLECULE
*****
 35 38 0 0 0
SMALL
GASTEIGER

@<TRIPOS>ATOM
      1 C         139.7566  139.2447  163.7587 C.3     1  UNL1        0.1200
      2 C         138.8300  138.3459  164.5226 C.3     1  UNL1        0.2250
      3 O         138.6380  138.5453  165.9968 O.3     1  UNL1       -0.4740
      4 C         139.3726  139.6435  166.7071 C.ar    1  UNL1        0.1346
      5 C         139.1805  139.8429  168.1814 C.ar    1  UNL1        0.0366
      6 C         139.9150  140.9411  168.8916 C.ar    1  UNL1        0.0031
      7 C         140.8417  141.8398  168.1276 C.ar    1  UNL1       -0.0001
      8 C         141.0337  141.6404  166.6534 C.ar    1  UNL1       -0.0009
      9 C         140.2992  140.5422  165.9432 C.ar    1  UNL1        0.0136
     10 C         140.4912  140.3428  164.4690 C.3     1  UNL1        0.0528
     11 C         141.9603  142.5391  165.8895 C.ar    1  UNL1        0.0026
     12 C         143.4376  142.4835  166.1432 C.ar    1  UNL1        0.0206
     13 C         144.3642  143.3823  165.3792 C.ar    1  UNL1        0.0985
     14 N         143.8135  144.3367  164.3615 N.ar    1  UNL1       -0.2457
     15 CA        142.3362  144.3923  164.1078 C.ar    1  UNL1        0.0885
     16 C         141.4096  143.4936  164.8717 C.ar    1  UNL1        0.0172
     17 C         141.7854  145.3468  163.0900 C.3     1  UNL1        0.1829
     18 O         142.2347  145.2615  161.6615 O.3     1  UNL1       -0.3760
     19 H         143.1760  145.4887  161.6045 H       1  UNL1        0.2110
     20 O         142.3237  138.0879  162.7233 O.2     1  UNL1       -0.2701
     21 C         141.2322  138.4669  161.7668 C.2     1  UNL1        0.2474
     22 N         139.9487  139.0453  162.2844 N.am    1  UNL1       -0.2986
     23 H         139.2323  139.2940  161.6566 H       1  UNL1        0.1498
     24 C         141.4243  138.2675  160.2925 C.ar    1  UNL1        0.0727
     25 C         140.2578  138.4022  159.3592 C.ar    1  UNL1        0.0109
     26 C         140.4499  138.2028  157.8850 C.ar    1  UNL1        0.0579
     27 C         141.8085  137.8687  157.3441 C.ar    1  UNL1        0.2251
     28 N         142.9750  137.7340  158.2774 N.ar    1  UNL1       -0.2100
     29 C         142.7829  137.9334  159.7516 C.ar    1  UNL1        0.1065
     30 O         142.0006  137.6693  155.8698 O.3     1  UNL1       -0.4509
     31 C         142.7388  136.4648  155.3658 C.3     1  UNL1        0.3095
     32 C         142.5393  135.1325  156.0256 C.3     1  UNL1        0.4381
     33 F         142.3397  133.8002  156.6853 F       1  UNL1       -0.1663
     34 F         141.1106  135.1203  155.5687 F       1  UNL1       -0.1663
     35 F         143.9679  135.1448  156.4824 F       1  UNL1       -0.1663
@<TRIPOS>BOND
     1    20    21    2
     2    21    22   am
     3     1    22    1
     4     1     2    1
     5     2     3    1
     6     3     4    1
     7     4     5   ar
     8     5     6   ar
     9     6     7   ar
    10     7     8   ar
    11     8    11    1
    12    11    12   ar
    13    12    13   ar
    14    13    14   ar
    15    14    15   ar
    16    15    17    1
    17    17    18    1
    18    15    16   ar
    19     8     9   ar
    20     9    10    1
    21    21    24    1
    22    24    25   ar
    23    25    26   ar
    24    26    27   ar
    25    27    30    1
    26    30    31    1
    27    31    32    1
    28    32    33    1
    29    32    34    1
    30    32    35    1
    31    27    28   ar
    32    28    29   ar
    33    10     1    1
    34    29    24   ar
    35     9     4   ar
    36    16    11   ar
    37    22    23    1
    38    18    19    1
@<TRIPOS>MOLECULE
*****
 35 38 0 0 0
SMALL
GASTEIGER

@<TRIPOS>ATOM
      1 C         139.9510  141.5076  160.1601 C.3     1  UNL1        0.1200
      2 C         138.7373  142.3164  159.8099 C.3     1  UNL1        0.2250
      3 O         138.0778  143.1692  160.8528 O.3     1  UNL1       -0.4740
      4 C         138.6319  143.2131  162.2461 C.ar    1  UNL1        0.1346
      5 C         137.9723  144.0659  163.2890 C.ar    1  UNL1        0.0366
      6 C         138.5264  144.1098  164.6822 C.ar    1  UNL1        0.0031
      7 C         139.7401  143.3009  165.0325 C.ar    1  UNL1       -0.0001
      8 C         140.3997  142.4481  163.9895 C.ar    1  UNL1       -0.0009
      9 C         139.8456  142.4042  162.5963 C.ar    1  UNL1        0.0136
     10 C         140.5051  141.5515  161.5533 C.3     1  UNL1        0.0528
     11 C         141.6134  141.6393  164.3398 C.ar    1  UNL1        0.0026
     12 C         141.4633  140.3450  165.0828 C.ar    1  UNL1        0.0206
     13 C         142.6771  139.5361  165.4331 C.ar    1  UNL1        0.0985
     14 N         144.0408  140.0216  165.0402 N.ar    1  UNL1       -0.2457
     15 CA        144.1909  141.3160  164.2972 C.ar    1  UNL1        0.0885
     16 C         142.9772  142.1248  163.9469 C.ar    1  UNL1        0.0172
     17 C         145.5548  141.8015  163.9044 C.3     1  UNL1        0.1829
     18 O         145.8910  142.0028  162.4565 O.3     1  UNL1       -0.3760
     19 H         145.8863  141.1463  162.0013 H       1  UNL1        0.2110
     20 O         139.4674  138.5471  160.1175 O.2     1  UNL1       -0.2701
     21 C         140.3688  139.1746  159.0958 C.2     1  UNL1        0.2474
     22 N         140.6106  140.6548  159.1172 N.am    1  UNL1       -0.2986
     23 H         141.2022  141.0667  158.4466 H       1  UNL1        0.1498
     24 C         141.0284  138.3218  158.0529 C.ar    1  UNL1        0.0727
     25 C         140.1933  137.5889  157.0453 C.ar    1  UNL1        0.0109
     26 C         140.8529  136.7362  156.0024 C.ar    1  UNL1        0.0579
     27 C         142.3477  136.6164  155.9671 C.ar    1  UNL1        0.2251
     28 N         143.1829  137.3493  156.9747 N.ar    1  UNL1       -0.2100
     29 C         142.5232  138.2020  158.0176 C.ar    1  UNL1        0.1065
     30 O         143.0073  135.7636  154.9241 O.3     1  UNL1       -0.4509
     31 C         142.5822  134.3366  154.7434 C.3     1  UNL1        0.3095
     32 C         142.6311  133.3868  155.9033 C.3     1  UNL1        0.4381
     33 F         142.6799  132.4370  157.0633 F       1  UNL1       -0.1663
     34 F         141.1689  133.1004  155.7304 F       1  UNL1       -0.1663
     35 F         144.0932  133.6732  156.0762 F       1  UNL1       -0.1663
@<TRIPOS>BOND
     1    20    21    2
     2    21    22   am
     3     1    22    1
     4     1     2    1
     5     2     3    1
     6     3     4    1
     7     4     5   ar
     8     5     6   ar
     9     6     7   ar
    10     7     8   ar
    11     8    11    1
    12    11    12   ar
    13    12    13   ar
    14    13    14   ar
    15    14    15   ar
    16    15    17    1
    17    17    18    1
    18    15    16   ar
    19     8     9   ar
    20     9    10    1
    21    21    24    1
    22    24    25   ar
    23    25    26   ar
    24    26    27   ar
    25    27    30    1
    26    30    31    1
    27    31    32    1
    28    32    33    1
    29    32    34    1
    30    32    35    1
    31    27    28   ar
    32    28    29   ar
    33    10     1    1
    34    29    24   ar
    35     9     4   ar
    36    16    11   ar
    37    22    23    1
    38    18    19    1
@<TRIPOS>MOLECULE
*****
 35 38 0 0 0
SMALL
GASTEIGER

@<TRIPOS>ATOM
      1 C         141.1677  139.2142  161.2239 C.3     1  UNL1        0.1200
      2 C         141.2047  137.7533  161.5620 C.3     1  UNL1        0.2250
      3 O         140.5315  137.2541  162.8059 O.3     1  UNL1       -0.4740
      4 C         139.8212  138.2158  163.7118 C.ar    1  UNL1        0.1346
      5 C         139.1479  137.7166  164.9558 C.ar    1  UNL1        0.0366
      6 C         138.4376  138.6783  165.8617 C.ar    1  UNL1        0.0031
      7 C         138.4006  140.1393  165.5235 C.ar    1  UNL1       -0.0001
      8 C         139.0739  140.6385  164.2796 C.ar    1  UNL1       -0.0009
      9 C         139.7842  139.6767  163.3737 C.ar    1  UNL1        0.0136
     10 C         140.4575  140.1759  162.1298 C.3     1  UNL1        0.0528
     11 C         139.0369  142.0994  163.9415 C.ar    1  UNL1        0.0026
     12 C         137.7567  142.7302  163.4798 C.ar    1  UNL1        0.0206
     13 C         137.7198  144.1911  163.1417 C.ar    1  UNL1        0.0985
     14 N         138.9630  145.0212  163.2653 N.ar    1  UNL1       -0.2457
     15 CA        140.2432  144.3904  163.7270 C.ar    1  UNL1        0.0885
     16 C         140.2802  142.9295  164.0651 C.ar    1  UNL1        0.0172
     17 C         141.4864  145.2206  163.8506 C.3     1  UNL1        0.1829
     18 O         142.4877  145.2425  162.7340 O.3     1  UNL1       -0.3760
     19 H         142.8879  144.3637  162.6413 H       1  UNL1        0.2110
     20 O         143.9199  140.3981  161.3798 O.2     1  UNL1       -0.2701
     21 C         143.2171  140.3053  160.0578 C.2     1  UNL1        0.2474
     22 N         141.8410  139.7134  159.9799 N.am    1  UNL1       -0.2986
     23 H         141.3798  139.6526  159.1123 H       1  UNL1        0.1498
     24 C         143.8904  140.8046  158.8138 C.ar    1  UNL1        0.0727
     25 C         143.7837  140.0230  157.5380 C.ar    1  UNL1        0.0109
     26 C         144.4569  140.5223  156.2941 C.ar    1  UNL1        0.0579
     27 C         145.2369  141.8031  156.3260 C.ar    1  UNL1        0.2251
     28 N         145.3437  142.5847  157.6018 N.ar    1  UNL1       -0.2100
     29 C         144.6704  142.0854  158.8457 C.ar    1  UNL1        0.1065
     30 O         145.9102  142.3024  155.0820 O.3     1  UNL1       -0.4509
     31 C         147.2863  142.8943  155.1599 C.3     1  UNL1        0.3095
     32 C         148.4792  141.9999  155.3238 C.3     1  UNL1        0.4381
     33 F         149.6723  141.1055  155.4875 F       1  UNL1       -0.1663
     34 F         148.4043  141.6339  153.8711 F       1  UNL1       -0.1663
     35 F         148.5542  142.3660  156.7764 F       1  UNL1       -0.1663
@<TRIPOS>BOND
     1    20    21    2
     2    21    22   am
     3     1    22    1
     4     1     2    1
     5     2     3    1
     6     3     4    1
     7     4     5   ar
     8     5     6   ar
     9     6     7   ar
    10     7     8   ar
    11     8    11    1
    12    11    12   ar
    13    12    13   ar
    14    13    14   ar
    15    14    15   ar
    16    15    17    1
    17    17    18    1
    18    15    16   ar
    19     8     9   ar
    20     9    10    1
    21    21    24    1
    22    24    25   ar
    23    25    26   ar
    24    26    27   ar
    25    27    30    1
    26    30    31    1
    27    31    32    1
    28    32    33    1
    29    32    34    1
    30    32    35    1
    31    27    28   ar
    32    28    29   ar
    33    10     1    1
    34    29    24   ar
    35     9     4   ar
    36    16    11   ar
    37    22    23    1
    38    18    19    1
@<TRIPOS>MOLECULE
*****
 35 38 0 0 0
SMALL
GASTEIGER

@<TRIPOS>ATOM
      1 C         139.1302  139.9791  164.1593 C.3     1  UNL1        0.1200
      2 C         138.1414  139.4432  165.1518 C.3     1  UNL1        0.2250
      3 O         138.4767  139.4330  166.6138 O.3     1  UNL1       -0.4740
      4 C         139.8007  139.9588  167.0833 C.ar    1  UNL1        0.1346
      5 C         140.1360  139.9486  168.5453 C.ar    1  UNL1        0.0366
      6 C         141.4601  140.4744  169.0148 C.ar    1  UNL1        0.0031
      7 C         142.4489  141.0103  168.0223 C.ar    1  UNL1       -0.0001
      8 C         142.1136  141.0205  166.5603 C.ar    1  UNL1       -0.0009
      9 C         140.7895  140.4947  166.0908 C.ar    1  UNL1        0.0136
     10 C         140.4543  140.5048  164.6288 C.3     1  UNL1        0.0528
     11 C         143.1024  141.5564  165.5678 C.ar    1  UNL1        0.0026
     12 C         144.1834  140.6660  165.0305 C.ar    1  UNL1        0.0206
     13 C         145.1722  141.2020  164.0380 C.ar    1  UNL1        0.0985
     14 N         145.0800  142.6283  163.5828 N.ar    1  UNL1       -0.2457
     15 CA        143.9990  143.5186  164.1201 C.ar    1  UNL1        0.0885
     16 C         143.0102  142.9827  165.1126 C.ar    1  UNL1        0.0172
     17 C         143.9068  144.9449  163.6649 C.3     1  UNL1        0.1829
     18 O         143.3735  145.2635  162.2996 O.3     1  UNL1       -0.3760
     19 H         143.9802  144.9172  161.6266 H       1  UNL1        0.2110
     20 O         138.8843  142.5858  162.6948 O.2     1  UNL1       -0.2701
     21 C         138.6720  141.2926  161.9650 C.2     1  UNL1        0.2474
     22 N         138.7949  139.9893  162.6972 N.am    1  UNL1       -0.2986
     23 H         138.6556  139.1405  162.2182 H       1  UNL1        0.1498
     24 C         138.3367  141.3027  160.5029 C.ar    1  UNL1        0.0727
     25 C         138.6309  142.5181  159.6745 C.ar    1  UNL1        0.0109
     26 C         138.2956  142.5282  158.2125 C.ar    1  UNL1        0.0579
     27 C         137.6663  141.3230  157.5790 C.ar    1  UNL1        0.2251
     28 N         137.3721  140.1077  158.4074 N.ar    1  UNL1       -0.2100
     29 C         137.7074  140.0975  159.8694 C.ar    1  UNL1        0.1065
     30 O         137.3310  141.3331  156.1169 O.3     1  UNL1       -0.4509
     31 C         136.2009  140.4927  155.6007 C.3     1  UNL1        0.3095
     32 C         134.8013  141.0320  155.6074 C.3     1  UNL1        0.4381
     33 F         133.4016  141.5713  155.6142 F       1  UNL1       -0.1663
     34 F         134.5219  140.2910  156.8813 F       1  UNL1       -0.1663
     35 F         135.0807  141.7730  154.3335 F       1  UNL1       -0.1663
@<TRIPOS>BOND
     1    20    21    2
     2    21    22   am
     3     1    22    1
     4     1     2    1
     5     2     3    1
     6     3     4    1
     7     4     5   ar
     8     5     6   ar
     9     6     7   ar
    10     7     8   ar
    11     8    11    1
    12    11    12   ar
    13    12    13   ar
    14    13    14   ar
    15    14    15   ar
    16    15    17    1
    17    17    18    1
    18    15    16   ar
    19     8     9   ar
    20     9    10    1
    21    21    24    1
    22    24    25   ar
    23    25    26   ar
    24    26    27   ar
    25    27    30    1
    26    30    31    1
    27    31    32    1
    28    32    33    1
    29    32    34    1
    30    32    35    1
    31    27    28   ar
    32    28    29   ar
    33    10     1    1
    34    29    24   ar
    35     9     4   ar
    36    16    11   ar
    37    22    23    1
    38    18    19    1
@<TRIPOS>MOLECULE
*****
 35 38 0 0 0
SMALL
GASTEIGER

@<TRIPOS>ATOM
      1 C         139.7779  141.5546  160.3327 C.3     1  UNL1        0.1200
      2 C         138.4319  142.1571  160.0585 C.3     1  UNL1        0.2250
      3 O         137.7464  142.9732  161.1140 O.3     1  UNL1       -0.4740
      4 C         138.4070  143.1868  162.4437 C.ar    1  UNL1        0.1346
      5 C         137.7215  144.0030  163.4992 C.ar    1  UNL1        0.0366
      6 C         138.3821  144.2166  164.8288 C.ar    1  UNL1        0.0031
      7 C         139.7282  143.6140  165.1030 C.ar    1  UNL1       -0.0001
      8 C         140.4136  142.7979  164.0475 C.ar    1  UNL1       -0.0009
      9 C         139.7530  142.5843  162.7178 C.ar    1  UNL1        0.0136
     10 C         140.4384  141.7682  161.6623 C.3     1  UNL1        0.0528
     11 C         141.7596  142.1953  164.3217 C.ar    1  UNL1        0.0026
     12 C         143.0056  142.9376  163.9389 C.ar    1  UNL1        0.0206
     13 C         144.3517  142.3350  164.2131 C.ar    1  UNL1        0.0985
     14 N         144.4516  140.9902  164.8701 N.ar    1  UNL1       -0.2457
     15 CA        143.2056  140.2480  165.2528 C.ar    1  UNL1        0.0885
     16 C         141.8596  140.8505  164.9787 C.ar    1  UNL1        0.0172
     17 C         143.3056  138.9032  165.9098 C.3     1  UNL1        0.1829
     18 O         143.3026  138.7973  167.4060 O.3     1  UNL1       -0.3760
     19 H         144.1047  139.2115  167.7611 H       1  UNL1        0.2110
     20 O         139.4819  138.5692  160.3170 O.2     1  UNL1       -0.2701
     21 C         140.3154  139.2458  159.2693 C.2     1  UNL1        0.2474
     22 N         140.4634  140.7384  159.2771 N.am    1  UNL1       -0.2986
     23 H         141.0104  141.1825  158.5895 H       1  UNL1        0.1498
     24 C         141.0009  138.4296  158.2138 C.ar    1  UNL1        0.0727
     25 C         140.1908  137.7284  157.1641 C.ar    1  UNL1        0.0109
     26 C         140.8763  136.9123  156.1086 C.ar    1  UNL1        0.0579
     27 C         142.3719  136.7974  156.1029 C.ar    1  UNL1        0.2251
     28 N         143.1820  137.4986  157.1527 N.ar    1  UNL1       -0.2100
     29 C         142.4965  138.3147  158.2081 C.ar    1  UNL1        0.1065
     30 O         143.0574  135.9812  155.0474 O.3     1  UNL1       -0.4509
     31 C         142.7043  134.5341  154.8712 C.3     1  UNL1        0.3095
     32 C         142.7107  133.6112  156.0536 C.3     1  UNL1        0.4381
     33 F         142.7170  132.6883  157.2361 F       1  UNL1       -0.1663
     34 F         141.2609  133.3041  155.8218 F       1  UNL1       -0.1663
     35 F         144.1604  133.9183  156.2854 F       1  UNL1       -0.1663
@<TRIPOS>BOND
     1    20    21    2
     2    21    22   am
     3     1    22    1
     4     1     2    1
     5     2     3    1
     6     3     4    1
     7     4     5   ar
     8     5     6   ar
     9     6     7   ar
    10     7     8   ar
    11     8    11    1
    12    11    12   ar
    13    12    13   ar
    14    13    14   ar
    15    14    15   ar
    16    15    17    1
    17    17    18    1
    18    15    16   ar
    19     8     9   ar
    20     9    10    1
    21    21    24    1
    22    24    25   ar
    23    25    26   ar
    24    26    27   ar
    25    27    30    1
    26    30    31    1
    27    31    32    1
    28    32    33    1
    29    32    34    1
    30    32    35    1
    31    27    28   ar
    32    28    29   ar
    33    10     1    1
    34    29    24   ar
    35     9     4   ar
    36    16    11   ar
    37    22    23    1
    38    18    19    1
@<TRIPOS>MOLECULE
*****
 35 38 0 0 0
SMALL
GASTEIGER

@<TRIPOS>ATOM
      1 C         143.4477  142.8400  161.3319 C.3     1  UNL1        0.1200
      2 C         144.9357  142.6772  161.4281 C.3     1  UNL1        0.2250
      3 O         145.5213  141.6904  162.3940 O.3     1  UNL1       -0.4740
      4 C         144.6189  140.8663  163.2638 C.ar    1  UNL1        0.1346
      5 C         145.2046  139.8793  164.2298 C.ar    1  UNL1        0.0366
      6 C         144.3022  139.0552  165.0996 C.ar    1  UNL1        0.0031
      7 C         142.8141  139.2181  165.0034 C.ar    1  UNL1       -0.0001
      8 C         142.2285  140.2049  164.0374 C.ar    1  UNL1       -0.0009
      9 C         143.1309  141.0290  163.1676 C.ar    1  UNL1        0.0136
     10 C         142.5453  142.0159  162.2017 C.3     1  UNL1        0.0528
     11 C         140.7405  140.3677  163.9413 C.ar    1  UNL1        0.0026
     12 C         140.0314  141.3316  164.8457 C.ar    1  UNL1        0.0206
     13 C         138.5433  141.4944  164.7495 C.ar    1  UNL1        0.0985
     14 N         137.7644  140.6932  163.7489 N.ar    1  UNL1       -0.2457
     15 CA        138.4734  139.7293  162.8444 C.ar    1  UNL1        0.0885
     16 C         139.9614  139.5665  162.9406 C.ar    1  UNL1        0.0172
     17 C         137.6944  138.9281  161.8437 C.3     1  UNL1        0.1829
     18 O         137.8220  137.4339  161.8165 O.3     1  UNL1       -0.3760
     19 H         138.7233  137.1911  161.5525 H       1  UNL1        0.2110
     20 O         142.5366  141.9279  158.6230 O.2     1  UNL1       -0.2701
     21 C         142.4065  143.3709  159.0115 C.2     1  UNL1        0.2474
     22 N         142.8620  143.8269  160.3659 N.am    1  UNL1       -0.2986
     23 H         142.7766  144.7740  160.6209 H       1  UNL1        0.1498
     24 C         141.8208  144.3578  158.0455 C.ar    1  UNL1        0.0727
     25 C         140.6801  145.2351  158.4688 C.ar    1  UNL1        0.0109
     26 C         140.0945  146.2219  157.5028 C.ar    1  UNL1        0.0579
     27 C         140.6495  146.3315  156.1136 C.ar    1  UNL1        0.2251
     28 N         141.7902  145.4542  155.6904 N.ar    1  UNL1       -0.2100
     29 C         142.3758  144.4674  156.6563 C.ar    1  UNL1        0.1065
     30 O         140.0639  147.3184  155.1476 O.3     1  UNL1       -0.4509
     31 C         138.9941  148.2672  155.6009 C.3     1  UNL1        0.3095
     32 C         138.9895  149.6835  155.1071 C.3     1  UNL1        0.4381
     33 F         138.9849  151.1000  154.6134 F       1  UNL1       -0.1663
     34 F         137.8697  150.0088  156.0506 F       1  UNL1       -0.1663
     35 F         140.1093  149.3583  154.1636 F       1  UNL1       -0.1663
@<TRIPOS>BOND
     1    20    21    2
     2    21    22   am
     3     1    22    1
     4     1     2    1
     5     2     3    1
     6     3     4    1
     7     4     5   ar
     8     5     6   ar
     9     6     7   ar
    10     7     8   ar
    11     8    11    1
    12    11    12   ar
    13    12    13   ar
    14    13    14   ar
    15    14    15   ar
    16    15    17    1
    17    17    18    1
    18    15    16   ar
    19     8     9   ar
    20     9    10    1
    21    21    24    1
    22    24    25   ar
    23    25    26   ar
    24    26    27   ar
    25    27    30    1
    26    30    31    1
    27    31    32    1
    28    32    33    1
    29    32    34    1
    30    32    35    1
    31    27    28   ar
    32    28    29   ar
    33    10     1    1
    34    29    24   ar
    35     9     4   ar
    36    16    11   ar
    37    22    23    1
    38    18    19    1
@<TRIPOS>MOLECULE
*****
 35 38 0 0 0
SMALL
GASTEIGER

@<TRIPOS>ATOM
      1 C         142.9621  142.8342  164.6033 C.3     1  UNL1        0.1200
      2 C         143.9955  143.6014  165.3736 C.3     1  UNL1        0.2250
      3 O         144.2033  143.3227  166.8328 O.3     1  UNL1       -0.4740
      4 C         143.3778  142.2767  167.5216 C.ar    1  UNL1        0.1346
      5 C         143.5856  141.9980  168.9808 C.ar    1  UNL1        0.0366
      6 C         142.7601  140.9521  169.6696 C.ar    1  UNL1        0.0031
      7 C         141.7266  140.1849  168.8992 C.ar    1  UNL1       -0.0001
      8 C         141.5188  140.4636  167.4401 C.ar    1  UNL1       -0.0009
      9 C         142.3443  141.5095  166.7513 C.ar    1  UNL1        0.0136
     10 C         142.1365  141.7883  165.2921 C.3     1  UNL1        0.0528
     11 C         140.4853  139.6964  166.6698 C.ar    1  UNL1        0.0026
     12 C         139.0945  139.5573  167.2139 C.ar    1  UNL1        0.0206
     13 C         138.0610  138.7900  166.4435 C.ar    1  UNL1        0.0985
     14 N         138.4185  138.1620  165.1291 N.ar    1  UNL1       -0.2457
     15 CA        139.8094  138.3012  164.5850 C.ar    1  UNL1        0.0885
     16 C         140.8428  139.0684  165.3553 C.ar    1  UNL1        0.0172
     17 C         140.1668  137.6731  163.2705 C.3     1  UNL1        0.1829
     18 O         141.2312  136.6180  163.2081 O.3     1  UNL1       -0.3760
     19 H         142.0881  137.0092  163.4395 H       1  UNL1        0.2110
     20 O         141.0018  144.9355  163.7419 O.2     1  UNL1       -0.2701
     21 C         141.7741  144.1635  162.7134 C.2     1  UNL1        0.2474
     22 N         142.7542  143.1129  163.1441 N.am    1  UNL1       -0.2986
     23 H         143.2611  142.6063  162.4691 H       1  UNL1        0.1498
     24 C         141.5662  144.4423  161.2542 C.ar    1  UNL1        0.0727
     25 C         142.4291  143.7653  160.2310 C.ar    1  UNL1        0.0109
     26 C         142.2212  144.0440  158.7719 C.ar    1  UNL1        0.0579
     27 C         141.1504  144.9997  158.3360 C.ar    1  UNL1        0.2251
     28 N         140.2875  145.6767  159.3593 N.ar    1  UNL1       -0.2100
     29 C         140.4954  145.3979  160.8184 C.ar    1  UNL1        0.1065
     30 O         140.9425  145.2784  156.8768 O.3     1  UNL1       -0.4509
     31 C         139.5748  145.6230  156.3665 C.3     1  UNL1        0.3095
     32 C         139.3203  146.9675  155.7521 C.3     1  UNL1        0.4381
     33 F         139.0658  148.3120  155.1376 F       1  UNL1       -0.1663
     34 F         139.5028  146.3774  154.3852 F       1  UNL1       -0.1663
     35 F         139.1377  147.5576  157.1190 F       1  UNL1       -0.1663
@<TRIPOS>BOND
     1    20    21    2
     2    21    22   am
     3     1    22    1
     4     1     2    1
     5     2     3    1
     6     3     4    1
     7     4     5   ar
     8     5     6   ar
     9     6     7   ar
    10     7     8   ar
    11     8    11    1
    12    11    12   ar
    13    12    13   ar
    14    13    14   ar
    15    14    15   ar
    16    15    17    1
    17    17    18    1
    18    15    16   ar
    19     8     9   ar
    20     9    10    1
    21    21    24    1
    22    24    25   ar
    23    25    26   ar
    24    26    27   ar
    25    27    30    1
    26    30    31    1
    27    31    32    1
    28    32    33    1
    29    32    34    1
    30    32    35    1
    31    27    28   ar
    32    28    29   ar
    33    10     1    1
    34    29    24   ar
    35     9     4   ar
    36    16    11   ar
    37    22    23    1
    38    18    19    1
