@<TRIPOS>MOLECULE
*****
 34 38 0 0 0
SMALL
GASTEIGER

@<TRIPOS>ATOM
      1 O         140.0150  138.1878  157.6230 O.2     1  UNL1       -0.2647
      2 C         141.4604  138.0785  158.0088 C.2     1  UNL1        0.3045
      3 N         141.9864  138.8603  159.1760 N.am    1  UNL1       -0.2720
      4 C         143.4319  138.7510  159.5618 C.3     1  UNL1        0.0976
      5 C         143.9577  139.5327  160.7289 C.3     1  UNL1        0.0651
      6 C         143.0383  140.4237  161.5102 C.3     1  UNL1        0.1693
      7 C         141.5928  140.5331  161.1245 C.3     1  UNL1        0.0651
      8 C         141.0669  139.7513  159.9574 C.3     1  UNL1        0.0976
      9 C         142.3799  137.1875  157.2274 C.ar    1  UNL1        0.3042
     10 N         143.5728  137.6306  156.4332 N.ar    1  UNL1       -0.1021
     11 N         144.1981  136.4139  155.8180 N.ar    1  UNL1       -0.1068
     12 C         143.3917  135.2188  156.2319 C.ar    1  UNL1        0.2501
     13 O         142.2680  135.6969  157.1030 O.2     1  UNL1       -0.4122
     14 C         143.6616  133.7954  155.8430 C.ar    1  UNL1        0.0551
     15 C         144.5803  132.9516  156.6761 C.ar    1  UNL1        0.0047
     16 C         144.8501  131.5282  156.2872 C.ar    1  UNL1        0.0002
     17 C         144.2012  130.9487  155.0653 C.ar    1  UNL1        0.0000
     18 C         143.2825  131.7925  154.2322 C.ar    1  UNL1        0.0002
     19 C         143.0127  133.2158  154.6211 C.ar    1  UNL1        0.0047
     20 O         143.5642  141.2055  162.6774 O.3     1  UNL1       -0.4791
     21 C         143.3073  140.7289  164.0763 C.ar    1  UNL1        0.1384
     22 C         143.0302  141.7203  165.1673 C.ar    1  UNL1        0.0366
     23 C         142.7733  141.2436  166.5662 C.ar    1  UNL1        0.0002
     24 C         142.7936  139.7757  166.8740 C.ar    1  UNL1       -0.0059
     25 C         143.0707  138.7843  165.7830 C.ar    1  UNL1        0.0002
     26 C         143.3276  139.2609  164.3841 C.ar    1  UNL1        0.0366
     27 C         142.5367  139.2992  168.2730 C.3     1  UNL1        0.0992
     28 N         141.5675  140.0351  169.1499 N.3     1  UNL1       -0.2668
     29 C         140.0928  140.1726  168.9127 C.3     1  UNL1        0.0750
     30 C         139.5167  140.9852  170.0342 C.3     1  UNL1        0.0480
     31 C         140.6354  141.3499  170.9646 C.3     1  UNL1        0.1278
     32 O         140.5088  142.1596  172.2208 O.3     1  UNL1       -0.3830
     33 C         141.9029  140.7627  170.4180 C.3     1  UNL1        0.1020
     34 H         139.5824  142.4180  172.3470 H       1  UNL1        0.2104
@<TRIPOS>BOND
     1     1     2    2
     2     2     9    1
     3     9    10   ar
     4    10    11   ar
     5    11    12   ar
     6    12    14    1
     7    14    15   ar
     8    15    16   ar
     9    16    17   ar
    10    17    18   ar
    11    18    19   ar
    12    12    13   ar
    13     2     3   am
    14     3     4    1
    15     4     5    1
    16     5     6    1
    17     6    20    1
    18    20    21    1
    19    21    22   ar
    20    22    23   ar
    21    23    24   ar
    22    24    27    1
    23    27    28    1
    24    28    29    1
    25    29    30    1
    26    30    31    1
    27    31    32    1
    28    31    33    1
    29    24    25   ar
    30    25    26   ar
    31     6     7    1
    32     7     8    1
    33    13     9   ar
    34     8     3    1
    35    19    14   ar
    36    26    21   ar
    37    33    28    1
    38    32    34    1
@<TRIPOS>MOLECULE
*****
 34 38 0 0 0
SMALL
GASTEIGER

@<TRIPOS>ATOM
      1 O         144.0628  139.4342  159.1242 O.2     1  UNL1       -0.2647
      2 C         142.7176  138.7720  159.0818 C.2     1  UNL1        0.3045
      3 N         141.6732  139.1297  160.0973 N.am    1  UNL1       -0.2720
      4 C         140.3279  138.4674  160.0549 C.3     1  UNL1        0.0976
      5 C         139.2835  138.8251  161.0703 C.3     1  UNL1        0.0651
      6 C         139.5844  139.8450  162.1283 C.3     1  UNL1        0.1693
      7 C         140.9296  140.5073  162.1708 C.3     1  UNL1        0.0651
      8 C         141.9740  140.1496  161.1552 C.3     1  UNL1        0.0976
      9 C         142.4168  137.7521  158.0238 C.ar    1  UNL1        0.3042
     10 N         141.3366  137.8489  156.9875 N.ar    1  UNL1       -0.1021
     11 N         141.3955  136.6129  156.1397 N.ar    1  UNL1       -0.1068
     12 C         142.5121  135.7522  156.6520 C.ar    1  UNL1        0.2501
     13 O         143.1432  136.4563  157.8164 O.2     1  UNL1       -0.4122
     14 C         142.9251  134.4211  156.0972 C.ar    1  UNL1        0.0551
     15 C         143.9522  133.5958  156.8140 C.ar    1  UNL1        0.0047
     16 C         144.3651  132.2648  156.2592 C.ar    1  UNL1        0.0002
     17 C         143.7509  131.7590  154.9876 C.ar    1  UNL1        0.0000
     18 C         142.7238  132.5843  154.2708 C.ar    1  UNL1        0.0002
     19 C         142.3108  133.9153  154.8256 C.ar    1  UNL1        0.0047
     20 O         138.5399  140.2027  163.1438 O.3     1  UNL1       -0.4791
     21 C         138.9182  140.3536  164.5875 C.ar    1  UNL1        0.1384
     22 C         139.5638  141.6204  165.0652 C.ar    1  UNL1        0.0366
     23 C         139.9420  141.7712  166.5088 C.ar    1  UNL1        0.0002
     24 C         139.6746  140.6552  167.4748 C.ar    1  UNL1       -0.0059
     25 C         139.0289  139.3884  166.9971 C.ar    1  UNL1        0.0002
     26 C         138.6507  139.2376  165.5534 C.ar    1  UNL1        0.0366
     27 C         140.0528  140.8062  168.9185 C.3     1  UNL1        0.0992
     28 N         141.3203  141.5164  169.2915 N.3     1  UNL1       -0.2668
     29 C         142.6698  141.2932  168.6760 C.3     1  UNL1        0.0750
     30 C         143.6443  142.2133  169.3496 C.3     1  UNL1        0.0480
     31 C         142.8970  143.0051  170.3813 C.3     1  UNL1        0.1278
     32 O         143.4832  144.0451  171.2896 O.3     1  UNL1       -0.3830
     33 C         141.4607  142.5744  170.3454 C.3     1  UNL1        0.1020
     34 H         144.4324  144.1332  171.1101 H       1  UNL1        0.2104
@<TRIPOS>BOND
     1     1     2    2
     2     2     9    1
     3     9    10   ar
     4    10    11   ar
     5    11    12   ar
     6    12    14    1
     7    14    15   ar
     8    15    16   ar
     9    16    17   ar
    10    17    18   ar
    11    18    19   ar
    12    12    13   ar
    13     2     3   am
    14     3     4    1
    15     4     5    1
    16     5     6    1
    17     6    20    1
    18    20    21    1
    19    21    22   ar
    20    22    23   ar
    21    23    24   ar
    22    24    27    1
    23    27    28    1
    24    28    29    1
    25    29    30    1
    26    30    31    1
    27    31    32    1
    28    31    33    1
    29    24    25   ar
    30    25    26   ar
    31     6     7    1
    32     7     8    1
    33    13     9   ar
    34     8     3    1
    35    19    14   ar
    36    26    21   ar
    37    33    28    1
    38    32    34    1
@<TRIPOS>MOLECULE
*****
 34 38 0 0 0
SMALL
GASTEIGER

@<TRIPOS>ATOM
      1 O         142.9205  140.8847  156.6308 O.2     1  UNL1       -0.2647
      2 C         142.9911  139.7560  157.6162 C.2     1  UNL1        0.3045
      3 N         143.4822  140.0077  159.0110 N.am    1  UNL1       -0.2720
      4 C         143.5527  138.8789  159.9964 C.3     1  UNL1        0.0976
      5 C         144.0438  139.1306  161.3912 C.3     1  UNL1        0.0651
      6 C         144.4643  140.5109  161.8006 C.3     1  UNL1        0.1693
      7 C         144.3938  141.6398  160.8153 C.3     1  UNL1        0.0651
      8 C         143.9027  141.3881  159.4205 C.3     1  UNL1        0.0976
      9 C         142.5706  138.3756  157.2068 C.ar    1  UNL1        0.3042
     10 N         141.1870  137.9582  156.8048 N.ar    1  UNL1       -0.1021
     11 N         141.2211  136.4949  156.4770 N.ar    1  UNL1       -0.1068
     12 C         142.6257  136.0079  156.6764 C.ar    1  UNL1        0.2501
     13 O         143.4597  137.1702  157.1274 O.2     1  UNL1       -0.4122
     14 C         143.1112  134.6048  156.4624 C.ar    1  UNL1        0.0551
     15 C         143.8393  133.8874  157.5602 C.ar    1  UNL1        0.0047
     16 C         144.3247  132.4844  157.3461 C.ar    1  UNL1        0.0002
     17 C         144.0820  131.7987  156.0342 C.ar    1  UNL1        0.0000
     18 C         143.3540  132.5161  154.9364 C.ar    1  UNL1        0.0002
     19 C         142.8685  133.9191  155.1505 C.ar    1  UNL1        0.0047
     20 O         144.9554  140.7626  163.1954 O.3     1  UNL1       -0.4791
     21 C         144.0769  140.4441  164.3688 C.ar    1  UNL1        0.1384
     22 C         144.1043  139.0727  164.9757 C.ar    1  UNL1        0.0366
     23 C         143.2258  138.7542  166.1491 C.ar    1  UNL1        0.0002
     24 C         142.3199  139.8071  166.7155 C.ar    1  UNL1       -0.0059
     25 C         142.2925  141.1785  166.1086 C.ar    1  UNL1        0.0002
     26 C         143.1710  141.4970  164.9352 C.ar    1  UNL1        0.0366
     27 C         141.4414  139.4884  167.8889 C.3     1  UNL1        0.0992
     28 N         141.2475  140.5017  168.9777 N.3     1  UNL1       -0.2668
     29 C         140.0775  141.4294  169.1205 C.3     1  UNL1        0.0750
     30 C         140.2964  142.2663  170.3460 C.3     1  UNL1        0.0480
     31 C         141.6016  141.8557  170.9606 C.3     1  UNL1        0.1278
     32 O         142.2119  142.4341  172.2027 O.3     1  UNL1       -0.3830
     33 C         142.1894  140.7651  170.1149 C.3     1  UNL1        0.1020
     34 H         141.6301  143.1244  172.5575 H       1  UNL1        0.2104
@<TRIPOS>BOND
     1     1     2    2
     2     2     9    1
     3     9    10   ar
     4    10    11   ar
     5    11    12   ar
     6    12    14    1
     7    14    15   ar
     8    15    16   ar
     9    16    17   ar
    10    17    18   ar
    11    18    19   ar
    12    12    13   ar
    13     2     3   am
    14     3     4    1
    15     4     5    1
    16     5     6    1
    17     6    20    1
    18    20    21    1
    19    21    22   ar
    20    22    23   ar
    21    23    24   ar
    22    24    27    1
    23    27    28    1
    24    28    29    1
    25    29    30    1
    26    30    31    1
    27    31    32    1
    28    31    33    1
    29    24    25   ar
    30    25    26   ar
    31     6     7    1
    32     7     8    1
    33    13     9   ar
    34     8     3    1
    35    19    14   ar
    36    26    21   ar
    37    33    28    1
    38    32    34    1
@<TRIPOS>MOLECULE
*****
 34 38 0 0 0
SMALL
GASTEIGER

@<TRIPOS>ATOM
      1 O         139.3080  140.0154  156.6727 O.2     1  UNL1       -0.2647
      2 C         139.8983  139.1663  157.7593 C.2     1  UNL1        0.3045
      3 N         139.3498  139.2438  159.1532 N.am    1  UNL1       -0.2720
      4 C         139.9402  138.3946  160.2398 C.3     1  UNL1        0.0976
      5 C         139.3918  138.4721  161.6337 C.3     1  UNL1        0.0651
      6 C         138.2530  139.3987  161.9411 C.3     1  UNL1        0.1693
      7 C         137.6625  140.2478  160.8547 C.3     1  UNL1        0.0651
      8 C         138.2110  140.1704  159.4607 C.3     1  UNL1        0.0976
      9 C         141.0371  138.2397  157.4518 C.ar    1  UNL1        0.3042
     10 N         142.4871  138.5008  157.7339 N.ar    1  UNL1       -0.1021
     11 N         143.2721  137.3118  157.2647 N.ar    1  UNL1       -0.1068
     12 C         142.3073  136.3159  156.6927 C.ar    1  UNL1        0.2501
     13 O         140.9260  136.8894  156.8083 O.2     1  UNL1       -0.4122
     14 C         142.6615  134.9808  156.1077 C.ar    1  UNL1        0.0551
     15 C         143.7435  134.1512  156.7330 C.ar    1  UNL1        0.0047
     16 C         144.0976  132.8162  156.1480 C.ar    1  UNL1        0.0002
     17 C         143.3698  132.3108  154.9376 C.ar    1  UNL1        0.0000
     18 C         142.2879  133.1404  154.3123 C.ar    1  UNL1        0.0002
     19 C         141.9337  134.4754  154.8973 C.ar    1  UNL1        0.0047
     20 O         137.7045  139.4762  163.3351 O.3     1  UNL1       -0.4791
     21 C         138.4669  140.2049  164.4017 C.ar    1  UNL1        0.1384
     22 C         138.8701  141.6343  164.1916 C.ar    1  UNL1        0.0366
     23 C         139.6325  142.3631  165.2582 C.ar    1  UNL1        0.0002
     24 C         139.9919  141.6623  166.5349 C.ar    1  UNL1       -0.0059
     25 C         139.5888  140.2329  166.7450 C.ar    1  UNL1        0.0002
     26 C         138.8263  139.5042  165.6784 C.ar    1  UNL1        0.0366
     27 C         140.7544  142.3912  167.6014 C.3     1  UNL1        0.0992
     28 N         141.1549  141.6769  168.8581 N.3     1  UNL1       -0.2668
     29 C         140.3163  141.5274  170.0927 C.3     1  UNL1        0.0750
     30 C         141.1075  140.7448  171.0985 C.3     1  UNL1        0.0480
     31 C         142.4351  140.4107  170.4854 C.3     1  UNL1        0.1278
     32 O         143.5395  139.6365  171.1418 O.3     1  UNL1       -0.3830
     33 C         142.4644  140.9868  169.1008 C.3     1  UNL1        0.1020
     34 H         143.2662  139.3784  172.0361 H       1  UNL1        0.2104
@<TRIPOS>BOND
     1     1     2    2
     2     2     9    1
     3     9    10   ar
     4    10    11   ar
     5    11    12   ar
     6    12    14    1
     7    14    15   ar
     8    15    16   ar
     9    16    17   ar
    10    17    18   ar
    11    18    19   ar
    12    12    13   ar
    13     2     3   am
    14     3     4    1
    15     4     5    1
    16     5     6    1
    17     6    20    1
    18    20    21    1
    19    21    22   ar
    20    22    23   ar
    21    23    24   ar
    22    24    27    1
    23    27    28    1
    24    28    29    1
    25    29    30    1
    26    30    31    1
    27    31    32    1
    28    31    33    1
    29    24    25   ar
    30    25    26   ar
    31     6     7    1
    32     7     8    1
    33    13     9   ar
    34     8     3    1
    35    19    14   ar
    36    26    21   ar
    37    33    28    1
    38    32    34    1
@<TRIPOS>MOLECULE
*****
 34 38 0 0 0
SMALL
GASTEIGER

@<TRIPOS>ATOM
      1 O         139.6957  142.0788  156.7529 O.2     1  UNL1       -0.2647
      2 C         139.3246  140.8529  157.5336 C.2     1  UNL1        0.3045
      3 N         138.8053  140.9846  158.9347 N.am    1  UNL1       -0.2720
      4 C         138.4342  139.7586  159.7153 C.3     1  UNL1        0.0976
      5 C         137.9149  139.8903  161.1163 C.3     1  UNL1        0.0651
      6 C         137.7667  141.2479  161.7367 C.3     1  UNL1        0.1693
      7 C         138.1378  142.4739  160.9562 C.3     1  UNL1        0.0651
      8 C         138.6571  142.3422  159.5551 C.3     1  UNL1        0.0976
      9 C         139.4728  139.4953  156.9132 C.ar    1  UNL1        0.3042
     10 N         138.4108  138.7485  156.1618 N.ar    1  UNL1       -0.1021
     11 N         138.9907  137.4378  155.7195 N.ar    1  UNL1       -0.1068
     12 C         140.4111  137.3744  156.1974 C.ar    1  UNL1        0.2501
     13 O         140.7090  138.6461  156.9351 O.2     1  UNL1       -0.4122
     14 C         141.3659  136.2389  155.9763 C.ar    1  UNL1        0.0551
     15 C         142.6490  136.1763  156.7508 C.ar    1  UNL1        0.0047
     16 C         143.6037  135.0407  156.5298 C.ar    1  UNL1        0.0002
     17 C         143.2755  133.9678  155.5343 C.ar    1  UNL1        0.0000
     18 C         141.9924  134.0304  154.7598 C.ar    1  UNL1        0.0002
     19 C         141.0377  135.1659  154.9808 C.ar    1  UNL1        0.0047
     20 O         137.2474  141.3796  163.1378 O.3     1  UNL1       -0.4791
     21 C         138.2021  141.5962  164.2743 C.ar    1  UNL1        0.1384
     22 C         138.6608  140.4314  165.1007 C.ar    1  UNL1        0.0366
     23 C         139.6155  140.6480  166.2372 C.ar    1  UNL1        0.0002
     24 C         140.1115  142.0293  166.5473 C.ar    1  UNL1       -0.0059
     25 C         139.6527  143.1940  165.7209 C.ar    1  UNL1        0.0002
     26 C         138.6980  142.9774  164.5844 C.ar    1  UNL1        0.0366
     27 C         141.0662  142.2457  167.6838 C.3     1  UNL1        0.0992
     28 N         141.2441  141.1825  168.7268 N.3     1  UNL1       -0.2668
     29 C         140.2927  140.8770  169.8455 C.3     1  UNL1        0.0750
     30 C         140.8652  139.7438  170.6444 C.3     1  UNL1        0.0480
     31 C         142.1703  139.3490  170.0194 C.3     1  UNL1        0.1278
     32 O         143.0814  138.2568  170.4958 O.3     1  UNL1       -0.3830
     33 C         142.4045  140.2382  168.8342 C.3     1  UNL1        0.1020
     34 H         142.6977  137.8351  171.2806 H       1  UNL1        0.2104
@<TRIPOS>BOND
     1     1     2    2
     2     2     9    1
     3     9    10   ar
     4    10    11   ar
     5    11    12   ar
     6    12    14    1
     7    14    15   ar
     8    15    16   ar
     9    16    17   ar
    10    17    18   ar
    11    18    19   ar
    12    12    13   ar
    13     2     3   am
    14     3     4    1
    15     4     5    1
    16     5     6    1
    17     6    20    1
    18    20    21    1
    19    21    22   ar
    20    22    23   ar
    21    23    24   ar
    22    24    27    1
    23    27    28    1
    24    28    29    1
    25    29    30    1
    26    30    31    1
    27    31    32    1
    28    31    33    1
    29    24    25   ar
    30    25    26   ar
    31     6     7    1
    32     7     8    1
    33    13     9   ar
    34     8     3    1
    35    19    14   ar
    36    26    21   ar
    37    33    28    1
    38    32    34    1
@<TRIPOS>MOLECULE
*****
 34 38 0 0 0
SMALL
GASTEIGER

@<TRIPOS>ATOM
      1 O         139.9074  139.9275  156.0621 O.2     1  UNL1       -0.2647
      2 C         140.2554  139.0032  157.1910 C.2     1  UNL1        0.3045
      3 N         139.6113  139.1834  158.5337 N.am    1  UNL1       -0.2720
      4 C         139.9594  138.2590  159.6626 C.3     1  UNL1        0.0976
      5 C         139.3154  138.4392  161.0052 C.3     1  UNL1        0.0651
      6 C         138.3232  139.5437  161.2189 C.3     1  UNL1        0.1693
      7 C         137.9750  140.4680  160.0900 C.3     1  UNL1        0.0651
      8 C         138.6191  140.2879  158.7474 C.3     1  UNL1        0.0976
      9 C         141.2476  137.8987  156.9773 C.ar    1  UNL1        0.3042
     10 N         142.7060  137.9439  157.3256 N.ar    1  UNL1       -0.1021
     11 N         143.3153  136.6283  156.9414 N.ar    1  UNL1       -0.1068
     12 C         142.2337  135.7699  156.3556 C.ar    1  UNL1        0.2501
     13 O         140.9558  136.5551  156.3778 O.2     1  UNL1       -0.4122
     14 C         142.4005  134.3718  155.8384 C.ar    1  UNL1        0.0551
     15 C         142.0910  134.0608  154.4040 C.ar    1  UNL1        0.0047
     16 C         142.2579  132.6627  153.8868 C.ar    1  UNL1        0.0002
     17 C         142.7343  131.5756  154.8040 C.ar    1  UNL1        0.0000
     18 C         143.0439  131.8866  156.2384 C.ar    1  UNL1        0.0002
     19 C         142.8770  133.2847  156.7555 C.ar    1  UNL1        0.0047
     20 O         137.6791  139.7239  162.5615 O.3     1  UNL1       -0.4791
     21 C         138.5297  139.9230  163.7808 C.ar    1  UNL1        0.1384
     22 C         138.3898  138.9967  164.9523 C.ar    1  UNL1        0.0366
     23 C         139.2405  139.1959  166.1716 C.ar    1  UNL1        0.0002
     24 C         140.2310  140.3213  166.2194 C.ar    1  UNL1       -0.0059
     25 C         140.3709  141.2476  165.0479 C.ar    1  UNL1        0.0002
     26 C         139.5203  141.0484  163.8286 C.ar    1  UNL1        0.0366
     27 C         141.0816  140.5203  167.4388 C.3     1  UNL1        0.0992
     28 N         140.6259  141.4449  168.5285 N.3     1  UNL1       -0.2668
     29 C         139.8996  141.0443  169.7783 C.3     1  UNL1        0.0750
     30 C         139.6413  142.2842  170.5819 C.3     1  UNL1        0.0480
     31 C         140.2080  143.4511  169.8288 C.3     1  UNL1        0.1278
     32 O         140.1724  144.8850  170.2677 O.3     1  UNL1       -0.3830
     33 C         140.8165  142.9324  168.5597 C.3     1  UNL1        0.1020
     34 H         139.7219  144.9498  171.1243 H       1  UNL1        0.2104
@<TRIPOS>BOND
     1     1     2    2
     2     2     9    1
     3     9    10   ar
     4    10    11   ar
     5    11    12   ar
     6    12    14    1
     7    14    15   ar
     8    15    16   ar
     9    16    17   ar
    10    17    18   ar
    11    18    19   ar
    12    12    13   ar
    13     2     3   am
    14     3     4    1
    15     4     5    1
    16     5     6    1
    17     6    20    1
    18    20    21    1
    19    21    22   ar
    20    22    23   ar
    21    23    24   ar
    22    24    27    1
    23    27    28    1
    24    28    29    1
    25    29    30    1
    26    30    31    1
    27    31    32    1
    28    31    33    1
    29    24    25   ar
    30    25    26   ar
    31     6     7    1
    32     7     8    1
    33    13     9   ar
    34     8     3    1
    35    19    14   ar
    36    26    21   ar
    37    33    28    1
    38    32    34    1
@<TRIPOS>MOLECULE
*****
 34 38 0 0 0
SMALL
GASTEIGER

@<TRIPOS>ATOM
      1 O         137.5067  139.5159  160.8005 O.2     1  UNL1       -0.2647
      2 C         138.8354  139.0482  161.3160 C.2     1  UNL1        0.3045
      3 N         139.9308  138.6946  160.3542 N.am    1  UNL1       -0.2720
      4 C         141.2596  138.2269  160.8698 C.3     1  UNL1        0.0976
      5 C         142.3549  137.8733  159.9080 C.3     1  UNL1        0.0651
      6 C         142.1216  137.9873  158.4307 C.3     1  UNL1        0.1693
      7 C         140.7929  138.4549  157.9150 C.3     1  UNL1        0.0651
      8 C         139.6975  138.8086  158.8769 C.3     1  UNL1        0.0976
      9 C         139.0688  138.9342  162.7933 C.ar    1  UNL1        0.3042
     10 N         139.1145  137.6596  163.5830 N.ar    1  UNL1       -0.1021
     11 N         139.3713  138.0124  165.0181 N.ar    1  UNL1       -0.1068
     12 C         139.4843  139.5050  165.1155 C.ar    1  UNL1        0.2501
     13 O         139.2973  140.0747  163.7405 O.2     1  UNL1       -0.4122
     14 C         139.7395  140.2901  166.3679 C.ar    1  UNL1        0.0551
     15 C         140.3937  141.6375  166.2882 C.ar    1  UNL1        0.0047
     16 C         140.6489  142.4226  167.5406 C.ar    1  UNL1        0.0002
     17 C         140.2498  141.8602  168.8727 C.ar    1  UNL1        0.0000
     18 C         139.5956  140.5128  168.9524 C.ar    1  UNL1        0.0002
     19 C         139.3404  139.7277  167.7000 C.ar    1  UNL1        0.0047
     20 O         143.2170  137.6336  157.4689 O.3     1  UNL1       -0.4791
     21 C         143.1990  136.3087  156.7659 C.ar    1  UNL1        0.1384
     22 C         143.3702  135.0414  157.5498 C.ar    1  UNL1        0.0366
     23 C         143.3522  133.7164  156.8467 C.ar    1  UNL1        0.0002
     24 C         143.1630  133.6588  155.3598 C.ar    1  UNL1       -0.0059
     25 C         142.9919  134.9262  154.5759 C.ar    1  UNL1        0.0002
     26 C         143.0098  136.2511  155.2789 C.ar    1  UNL1        0.0366
     27 C         143.1451  132.3338  154.6569 C.3     1  UNL1        0.0992
     28 N         141.8375  131.6973  154.2895 N.3     1  UNL1       -0.2668
     29 C         141.1703  130.5692  155.0191 C.3     1  UNL1        0.0750
     30 C         139.8880  130.2518  154.3086 C.3     1  UNL1        0.0480
     31 C         139.7627  131.1837  153.1399 C.3     1  UNL1        0.1278
     32 O         138.6312  131.2165  152.1558 O.3     1  UNL1       -0.3830
     33 C         140.9676  132.0771  153.1281 C.3     1  UNL1        0.1020
     34 H         137.9805  130.5358  152.3884 H       1  UNL1        0.2104
@<TRIPOS>BOND
     1     1     2    2
     2     2     9    1
     3     9    10   ar
     4    10    11   ar
     5    11    12   ar
     6    12    14    1
     7    14    15   ar
     8    15    16   ar
     9    16    17   ar
    10    17    18   ar
    11    18    19   ar
    12    12    13   ar
    13     2     3   am
    14     3     4    1
    15     4     5    1
    16     5     6    1
    17     6    20    1
    18    20    21    1
    19    21    22   ar
    20    22    23   ar
    21    23    24   ar
    22    24    27    1
    23    27    28    1
    24    28    29    1
    25    29    30    1
    26    30    31    1
    27    31    32    1
    28    31    33    1
    29    24    25   ar
    30    25    26   ar
    31     6     7    1
    32     7     8    1
    33    13     9   ar
    34     8     3    1
    35    19    14   ar
    36    26    21   ar
    37    33    28    1
    38    32    34    1
@<TRIPOS>MOLECULE
*****
 34 38 0 0 0
SMALL
GASTEIGER

@<TRIPOS>ATOM
      1 O         139.0713  139.3335  157.7185 O.2     1  UNL1       -0.2647
      2 C         140.3460  138.9318  158.3996 C.2     1  UNL1        0.3045
      3 N         140.3251  138.4996  159.8358 N.am    1  UNL1       -0.2720
      4 C         141.5999  138.0980  160.5168 C.3     1  UNL1        0.0976
      5 C         141.5790  137.6658  161.9530 C.3     1  UNL1        0.0651
      6 C         140.2833  137.6353  162.7082 C.3     1  UNL1        0.1693
      7 C         139.0086  138.0369  162.0273 C.3     1  UNL1        0.0651
      8 C         139.0295  138.4691  160.5910 C.3     1  UNL1        0.0976
      9 C         141.6416  138.9624  157.6443 C.ar    1  UNL1        0.3042
     10 N         142.2701  137.8061  156.9244 N.ar    1  UNL1       -0.1021
     11 N         143.5532  138.2837  156.3116 N.ar    1  UNL1       -0.1068
     12 C         143.7178  139.7350  156.6527 C.ar    1  UNL1        0.2501
     13 O         142.5364  140.1545  157.4764 O.2     1  UNL1       -0.4122
     14 C         144.8628  140.6129  156.2422 C.ar    1  UNL1        0.0551
     15 C         145.4281  140.5093  154.8567 C.ar    1  UNL1        0.0047
     16 C         146.5730  141.3871  154.4463 C.ar    1  UNL1        0.0002
     17 C         147.1526  142.3686  155.4213 C.ar    1  UNL1        0.0000
     18 C         146.5873  142.4723  156.8068 C.ar    1  UNL1        0.0002
     19 C         145.4423  141.5944  157.2172 C.ar    1  UNL1        0.0047
     20 O         140.2624  137.2031  164.1445 O.3     1  UNL1       -0.4791
     21 C         140.2091  138.2304  165.2361 C.ar    1  UNL1        0.1384
     22 C         138.9315  138.4603  165.9878 C.ar    1  UNL1        0.0366
     23 C         138.8782  139.4877  167.0795 C.ar    1  UNL1        0.0002
     24 C         140.1024  140.2850  167.4195 C.ar    1  UNL1       -0.0059
     25 C         141.3799  140.0551  166.6678 C.ar    1  UNL1        0.0002
     26 C         141.4332  139.0278  165.5762 C.ar    1  UNL1        0.0366
     27 C         140.0489  141.3123  168.5112 C.3     1  UNL1        0.0992
     28 N         141.3073  141.7242  169.2159 N.3     1  UNL1       -0.2668
     29 C         142.5322  140.8782  169.3996 C.3     1  UNL1        0.0750
     30 C         143.5437  141.6855  170.1579 C.3     1  UNL1        0.0480
     31 C         142.9440  143.0305  170.4428 C.3     1  UNL1        0.1278
     32 O         143.6096  144.1543  171.1804 O.3     1  UNL1       -0.3830
     33 C         141.5617  143.0544  169.8606 C.3     1  UNL1        0.1020
     34 H         144.4998  143.8807  171.4514 H       1  UNL1        0.2104
@<TRIPOS>BOND
     1     1     2    2
     2     2     9    1
     3     9    10   ar
     4    10    11   ar
     5    11    12   ar
     6    12    14    1
     7    14    15   ar
     8    15    16   ar
     9    16    17   ar
    10    17    18   ar
    11    18    19   ar
    12    12    13   ar
    13     2     3   am
    14     3     4    1
    15     4     5    1
    16     5     6    1
    17     6    20    1
    18    20    21    1
    19    21    22   ar
    20    22    23   ar
    21    23    24   ar
    22    24    27    1
    23    27    28    1
    24    28    29    1
    25    29    30    1
    26    30    31    1
    27    31    32    1
    28    31    33    1
    29    24    25   ar
    30    25    26   ar
    31     6     7    1
    32     7     8    1
    33    13     9   ar
    34     8     3    1
    35    19    14   ar
    36    26    21   ar
    37    33    28    1
    38    32    34    1
@<TRIPOS>MOLECULE
*****
 34 38 0 0 0
SMALL
GASTEIGER

@<TRIPOS>ATOM
      1 O         143.9237  139.5346  157.2291 O.2     1  UNL1       -0.2647
      2 C         142.8011  138.6751  157.7302 C.2     1  UNL1        0.3045
      3 N         141.8608  139.2023  158.7732 N.am    1  UNL1       -0.2720
      4 C         140.7382  138.3427  159.2743 C.3     1  UNL1        0.0976
      5 C         139.7980  138.8698  160.3173 C.3     1  UNL1        0.0651
      6 C         139.9803  140.2565  160.8593 C.3     1  UNL1        0.1693
      7 C         141.1029  141.1162  160.3583 C.3     1  UNL1        0.0651
      8 C         142.0431  140.5890  159.3153 C.3     1  UNL1        0.0976
      9 C         142.6188  137.2884  157.1881 C.ar    1  UNL1        0.3042
     10 N         141.6743  136.8864  156.0943 N.ar    1  UNL1       -0.1021
     11 N         141.8208  135.4097  155.8749 N.ar    1  UNL1       -0.1068
     12 C         142.8558  134.8992  156.8331 C.ar    1  UNL1        0.2501
     13 O         143.3490  136.0602  157.6447 O.2     1  UNL1       -0.4122
     14 C         143.3167  133.4771  156.9578 C.ar    1  UNL1        0.0551
     15 C         144.4850  133.1417  157.8367 C.ar    1  UNL1        0.0047
     16 C         144.9458  131.7198  157.9613 C.ar    1  UNL1        0.0002
     17 C         144.2383  130.6332  157.2072 C.ar    1  UNL1        0.0000
     18 C         143.0700  130.9686  156.3283 C.ar    1  UNL1        0.0002
     19 C         142.6091  132.3905  156.2036 C.ar    1  UNL1        0.0047
     20 O         139.0400  140.7837  161.9024 O.3     1  UNL1       -0.4791
     21 C         139.5578  141.1539  163.2606 C.ar    1  UNL1        0.1384
     22 C         139.4274  140.1890  164.4016 C.ar    1  UNL1        0.0366
     23 C         139.9452  140.5592  165.7598 C.ar    1  UNL1        0.0002
     24 C         140.5934  141.8944  165.9771 C.ar    1  UNL1       -0.0059
     25 C         140.7238  142.8593  164.8361 C.ar    1  UNL1        0.0002
     26 C         140.2060  142.4891  163.4779 C.ar    1  UNL1        0.0366
     27 C         141.1112  142.2645  167.3354 C.3     1  UNL1        0.0992
     28 N         141.1211  141.2468  168.4373 N.3     1  UNL1       -0.2668
     29 C         142.2459  140.3088  168.7611 C.3     1  UNL1        0.0750
     30 C         141.8278  139.4707  169.9327 C.3     1  UNL1        0.0480
     31 C         140.4446  139.8907  170.3330 C.3     1  UNL1        0.1278
     32 O         139.6396  139.3142  171.4597 O.3     1  UNL1       -0.3830
     33 C         140.0078  140.9884  169.4088 C.3     1  UNL1        0.1020
     34 H         140.1519  138.6181  171.9000 H       1  UNL1        0.2104
@<TRIPOS>BOND
     1     1     2    2
     2     2     9    1
     3     9    10   ar
     4    10    11   ar
     5    11    12   ar
     6    12    14    1
     7    14    15   ar
     8    15    16   ar
     9    16    17   ar
    10    17    18   ar
    11    18    19   ar
    12    12    13   ar
    13     2     3   am
    14     3     4    1
    15     4     5    1
    16     5     6    1
    17     6    20    1
    18    20    21    1
    19    21    22   ar
    20    22    23   ar
    21    23    24   ar
    22    24    27    1
    23    27    28    1
    24    28    29    1
    25    29    30    1
    26    30    31    1
    27    31    32    1
    28    31    33    1
    29    24    25   ar
    30    25    26   ar
    31     6     7    1
    32     7     8    1
    33    13     9   ar
    34     8     3    1
    35    19    14   ar
    36    26    21   ar
    37    33    28    1
    38    32    34    1
