@<TRIPOS>MOLECULE
*****
 34 37 0 0 0
SMALL
GASTEIGER

@<TRIPOS>ATOM
      1 C         138.3531  139.3076  167.5268 C.ar    1  UNL1        0.1390
      2 C         139.4836  140.2270  167.8828 C.ar    1  UNL1        0.0733
      3 C         139.7364  140.5842  169.3175 C.ar    1  UNL1        0.1679
      4 N         138.8588  140.0221  170.3963 N.ar    1  UNL1       -0.2047
      5 C         137.7283  139.1026  170.0403 C.ar    1  UNL1        0.2001
      6 N         137.4754  138.7454  168.6056 N.ar    1  UNL1       -0.2088
      7 N         140.8669  141.5037  169.6735 N.ar    1  UNL1       -0.2164
      8 N         142.3234  141.2490  169.4208 N.ar    1  UNL1       -0.1684
      9 C         143.0961  142.4271  169.9357 C.ar    1  UNL1        0.0805
     10 C         144.5861  142.5933  169.8881 C.3     1  UNL1        0.0540
     11 C         142.1171  143.4098  170.5067 C.ar    1  UNL1        0.0312
     12 C         140.7394  142.8391  170.3446 C.ar    1  UNL1        0.0637
     13 C         139.4590  143.4895  170.7775 C.3     1  UNL1        0.0522
     14 C         136.8507  138.5405  171.1191 C.ar    1  UNL1        0.1805
     15 C         135.5366  139.1057  171.5705 C.ar    1  UNL1        0.0434
     16 C         135.0068  138.2290  172.6662 C.ar    1  UNL1        0.0362
     17 C         135.9935  137.1219  172.8921 C.ar    1  UNL1        0.1234
     18 C         135.8634  136.0164  173.8975 C.3     1  UNL1        0.0725
     19 O         137.1330  137.3144  171.9359 O.2     1  UNL1       -0.4546
     20 C         138.2313  139.9959  165.0246 C.2     1  UNL1        0.2316
     21 O         138.6151  141.3987  165.3917 O.2     1  UNL1       -0.2744
     22 N         138.1003  138.9504  166.0921 N.am    1  UNL1       -0.2689
     23 H         137.8483  138.0296  165.8511 H       1  UNL1        0.1563
     24 C         137.9784  139.6386  163.5898 C.3     1  UNL1        0.1119
     25 C         140.0234  138.4859  160.3900 C.ar    1  UNL1        0.1415
     26 C         138.8943  138.9638  161.2541 C.ar    1  UNL1        0.0333
     27 C         139.1076  139.1607  162.7257 C.ar    1  UNL1       -0.0071
     28 C         140.4500  138.8799  163.3332 C.ar    1  UNL1        0.0333
     29 C         141.5791  138.4020  162.4691 C.ar    1  UNL1        0.1415
     30 C         141.3658  138.2050  160.9975 C.ar    1  UNL1        0.0737
     31 C         140.9498  138.4835  157.9627 C.3     1  UNL1        0.2525
     32 O         139.8102  138.2889  158.9183 O.3     1  UNL1       -0.4713
     33 O         142.9215  138.1211  163.0767 O.3     1  UNL1       -0.4713
     34 C         143.9410  139.2162  163.1820 C.3     1  UNL1        0.2525
@<TRIPOS>BOND
     1    31    32    1
     2    32    25    1
     3    25    26   ar
     4    26    27   ar
     5    27    24    1
     6    24    20    1
     7    20    21    2
     8    20    22   am
     9    22     1    1
    10     1     2   ar
    11     2     3   ar
    12     3     7    1
    13     7     8   ar
    14     8     9   ar
    15     9    10    1
    16     9    11   ar
    17    11    12   ar
    18    12    13    1
    19     3     4   ar
    20     4     5   ar
    21     5    14    1
    22    14    15   ar
    23    15    16   ar
    24    16    17   ar
    25    17    18    1
    26    17    19   ar
    27     5     6   ar
    28    27    28   ar
    29    28    29   ar
    30    29    33    1
    31    33    34    1
    32    29    30   ar
    33    30    25   ar
    34     6     1   ar
    35    12     7   ar
    36    19    14   ar
    37    22    23    1
@<TRIPOS>MOLECULE
*****
 34 37 0 0 0
SMALL
GASTEIGER

@<TRIPOS>ATOM
      1 C         140.9604  138.7943  158.0663 C.ar    1  UNL1        0.1390
      2 C         141.1970  137.4302  157.4892 C.ar    1  UNL1        0.0733
      3 C         142.5021  137.1148  156.8205 C.ar    1  UNL1        0.1679
      4 N         143.5705  138.1635  156.7288 N.ar    1  UNL1       -0.2047
      5 C         143.3340  139.5277  157.3059 C.ar    1  UNL1        0.2001
      6 N         142.0289  139.8432  157.9746 N.ar    1  UNL1       -0.2088
      7 N         142.7386  135.7505  156.2434 N.ar    1  UNL1       -0.2164
      8 N         143.7462  134.7507  156.7284 N.ar    1  UNL1       -0.1684
      9 C         143.6395  133.5288  155.8648 C.ar    1  UNL1        0.0805
     10 C         144.4619  132.2814  155.9967 C.3     1  UNL1        0.0540
     11 C         142.5659  133.7736  154.8461 C.ar    1  UNL1        0.0312
     12 C         142.0092  135.1466  155.0801 C.ar    1  UNL1        0.0637
     13 C         140.9151  135.8009  154.2897 C.3     1  UNL1        0.0522
     14 C         144.4025  140.5765  157.2142 C.ar    1  UNL1        0.1805
     15 C         144.5216  141.7922  158.0847 C.ar    1  UNL1        0.0434
     16 C         145.7322  142.5607  157.6444 C.ar    1  UNL1        0.0362
     17 C         146.3613  141.8199  156.5017 C.ar    1  UNL1        0.1234
     18 C         147.5954  142.2330  155.7560 C.3     1  UNL1        0.0725
     19 O         145.5394  140.5936  156.2359 O.2     1  UNL1       -0.4546
     20 C         139.4529  138.7709  160.1821 C.2     1  UNL1        0.2316
     21 O         140.5556  138.1165  160.9606 O.2     1  UNL1       -0.2744
     22 N         139.6553  139.1098  158.7350 N.am    1  UNL1       -0.2689
     23 H         138.9315  139.5392  158.2242 H       1  UNL1        0.1563
     24 C         138.1478  139.0863  160.8509 C.3     1  UNL1        0.1119
     25 C         138.1795  140.6277  164.5079 C.ar    1  UNL1        0.1415
     26 C         138.2273  139.6279  163.3907 C.ar    1  UNL1        0.0333
     27 C         138.0999  140.0862  161.9681 C.ar    1  UNL1       -0.0071
     28 C         137.9246  141.5442  161.6627 C.ar    1  UNL1        0.0333
     29 C         137.8767  142.5440  162.7799 C.ar    1  UNL1        0.1415
     30 C         138.0042  142.0857  164.2024 C.ar    1  UNL1        0.0737
     31 C         138.1341  138.7184  166.2693 C.3     1  UNL1        0.2525
     32 O         138.3069  140.1694  165.9304 O.3     1  UNL1       -0.4713
     33 O         137.7014  144.0021  162.4745 O.3     1  UNL1       -0.4713
     34 C         138.7682  144.9830  162.8614 C.3     1  UNL1        0.2525
@<TRIPOS>BOND
     1    31    32    1
     2    32    25    1
     3    25    26   ar
     4    26    27   ar
     5    27    24    1
     6    24    20    1
     7    20    21    2
     8    20    22   am
     9    22     1    1
    10     1     2   ar
    11     2     3   ar
    12     3     7    1
    13     7     8   ar
    14     8     9   ar
    15     9    10    1
    16     9    11   ar
    17    11    12   ar
    18    12    13    1
    19     3     4   ar
    20     4     5   ar
    21     5    14    1
    22    14    15   ar
    23    15    16   ar
    24    16    17   ar
    25    17    18    1
    26    17    19   ar
    27     5     6   ar
    28    27    28   ar
    29    28    29   ar
    30    29    33    1
    31    33    34    1
    32    29    30   ar
    33    30    25   ar
    34     6     1   ar
    35    12     7   ar
    36    19    14   ar
    37    22    23    1
@<TRIPOS>MOLECULE
*****
 34 37 0 0 0
SMALL
GASTEIGER

@<TRIPOS>ATOM
      1 C         141.0400  138.8608  158.0090 C.ar    1  UNL1        0.1390
      2 C         141.2755  137.4636  157.5169 C.ar    1  UNL1        0.0733
      3 C         142.5872  137.1018  156.8857 C.ar    1  UNL1        0.1679
      4 N         143.6635  138.1372  156.7467 N.ar    1  UNL1       -0.2047
      5 C         143.4281  139.5346  157.2388 C.ar    1  UNL1        0.2001
      6 N         142.1163  139.8964  157.8699 N.ar    1  UNL1       -0.2088
      7 N         142.8227  135.7044  156.3936 N.ar    1  UNL1       -0.2164
      8 N         143.2457  134.5342  157.2313 N.ar    1  UNL1       -0.1684
      9 C         143.3609  133.3386  156.3330 C.ar    1  UNL1        0.0805
     10 C         143.7581  131.9547  156.7536 C.3     1  UNL1        0.0540
     11 C         143.0091  133.7698  154.9400 C.ar    1  UNL1        0.0312
     12 C         142.6765  135.2320  154.9775 C.ar    1  UNL1        0.0637
     13 C         142.2692  136.0740  153.8049 C.3     1  UNL1        0.0522
     14 C         144.5044  140.5700  157.0997 C.ar    1  UNL1        0.1805
     15 C         144.6603  141.7988  157.9458 C.ar    1  UNL1        0.0434
     16 C         145.8660  142.5467  157.4591 C.ar    1  UNL1        0.0362
     17 C         146.4554  141.7801  156.3123 C.ar    1  UNL1        0.1234
     18 C         147.6725  142.1673  155.5257 C.3     1  UNL1        0.0725
     19 O         145.6138  140.5585  156.0902 O.2     1  UNL1       -0.4546
     20 C         139.4722  138.8912  160.0804 C.2     1  UNL1        0.2316
     21 O         140.5279  138.1979  160.8897 O.2     1  UNL1       -0.2744
     22 N         139.7282  139.2227  158.6401 N.am    1  UNL1       -0.2689
     23 H         139.0353  139.6777  158.1090 H       1  UNL1        0.1563
     24 C         138.1604  139.2530  160.7116 C.3     1  UNL1        0.1119
     25 C         137.9465  142.6827  162.6968 C.ar    1  UNL1        0.1415
     26 C         137.9879  141.7016  161.5631 C.ar    1  UNL1        0.0333
     27 C         138.1190  140.2342  161.8454 C.ar    1  UNL1       -0.0071
     28 C         138.2086  139.7481  163.2616 C.ar    1  UNL1        0.0333
     29 C         138.1672  140.7293  164.3954 C.ar    1  UNL1        0.1415
     30 C         138.0361  142.1966  164.1130 C.ar    1  UNL1        0.0737
     31 C         138.9011  145.0950  162.8369 C.3     1  UNL1        0.2525
     32 O         137.8155  144.1501  162.4145 O.3     1  UNL1       -0.4713
     33 O         138.2568  140.2431  165.8117 O.3     1  UNL1       -0.4713
     34 C         138.1567  138.7763  166.1089 C.3     1  UNL1        0.2525
@<TRIPOS>BOND
     1    31    32    1
     2    32    25    1
     3    25    26   ar
     4    26    27   ar
     5    27    24    1
     6    24    20    1
     7    20    21    2
     8    20    22   am
     9    22     1    1
    10     1     2   ar
    11     2     3   ar
    12     3     7    1
    13     7     8   ar
    14     8     9   ar
    15     9    10    1
    16     9    11   ar
    17    11    12   ar
    18    12    13    1
    19     3     4   ar
    20     4     5   ar
    21     5    14    1
    22    14    15   ar
    23    15    16   ar
    24    16    17   ar
    25    17    18    1
    26    17    19   ar
    27     5     6   ar
    28    27    28   ar
    29    28    29   ar
    30    29    33    1
    31    33    34    1
    32    29    30   ar
    33    30    25   ar
    34     6     1   ar
    35    12     7   ar
    36    19    14   ar
    37    22    23    1
@<TRIPOS>MOLECULE
*****
 34 37 0 0 0
SMALL
GASTEIGER

@<TRIPOS>ATOM
      1 C         140.8896  138.6354  157.4198 C.ar    1  UNL1        0.1390
      2 C         141.9987  139.5779  157.0571 C.ar    1  UNL1        0.0733
      3 C         143.3003  139.0408  156.5400 C.ar    1  UNL1        0.1679
      4 N         143.4928  137.5613  156.3856 N.ar    1  UNL1       -0.2047
      5 C         142.3837  136.6187  156.7483 C.ar    1  UNL1        0.2001
      6 N         141.0821  137.1558  157.2654 N.ar    1  UNL1       -0.2088
      7 N         144.4094  139.9834  156.1773 N.ar    1  UNL1       -0.2164
      8 N         145.2092  140.8145  157.1363 N.ar    1  UNL1       -0.1684
      9 C         146.2075  141.6051  156.3437 C.ar    1  UNL1        0.0805
     10 C         147.2122  142.5689  156.9019 C.3     1  UNL1        0.0540
     11 C         146.0247  141.2626  154.8947 C.ar    1  UNL1        0.0312
     12 C         144.9135  140.2604  154.7919 C.ar    1  UNL1        0.0637
     13 C         144.3969  139.6434  153.5261 C.3     1  UNL1        0.0522
     14 C         142.5762  135.1392  156.5939 C.ar    1  UNL1        0.1805
     15 C         143.6652  134.3215  157.2225 C.ar    1  UNL1        0.0434
     16 C         143.4756  132.8945  156.8009 C.ar    1  UNL1        0.0362
     17 C         142.2693  132.8303  155.9116 C.ar    1  UNL1        0.1234
     18 C         141.7160  131.5956  155.2640 C.3     1  UNL1        0.0725
     19 O         141.7134  134.2176  155.7837 O.2     1  UNL1       -0.4546
     20 C         139.3760  139.3319  159.4132 C.2     1  UNL1        0.2316
     21 O         140.4656  138.9542  160.3725 O.2     1  UNL1       -0.2744
     22 N         139.5880  139.1725  157.9369 N.am    1  UNL1       -0.2689
     23 H         138.8729  139.4203  157.3073 H       1  UNL1        0.1563
     24 C         138.0744  139.8689  159.9304 C.3     1  UNL1        0.1119
     25 C         137.9710  142.9186  162.4679 C.ar    1  UNL1        0.1415
     26 C         138.0054  142.1434  161.1842 C.ar    1  UNL1        0.0333
     27 C         138.0399  140.6441  161.2141 C.ar    1  UNL1       -0.0071
     28 C         138.0400  139.9199  162.5277 C.ar    1  UNL1        0.0333
     29 C         138.0056  140.6951  163.8114 C.ar    1  UNL1        0.1415
     30 C         137.9711  142.1944  163.7815 C.ar    1  UNL1        0.0737
     31 C         139.1847  145.2024  162.7143 C.3     1  UNL1        0.2525
     32 O         137.9365  144.4179  162.4380 O.3     1  UNL1       -0.4713
     33 O         138.0056  139.9710  165.1251 O.3     1  UNL1       -0.4713
     34 C         138.5654  138.5824  165.2160 C.3     1  UNL1        0.2525
@<TRIPOS>BOND
     1    31    32    1
     2    32    25    1
     3    25    26   ar
     4    26    27   ar
     5    27    24    1
     6    24    20    1
     7    20    21    2
     8    20    22   am
     9    22     1    1
    10     1     2   ar
    11     2     3   ar
    12     3     7    1
    13     7     8   ar
    14     8     9   ar
    15     9    10    1
    16     9    11   ar
    17    11    12   ar
    18    12    13    1
    19     3     4   ar
    20     4     5   ar
    21     5    14    1
    22    14    15   ar
    23    15    16   ar
    24    16    17   ar
    25    17    18    1
    26    17    19   ar
    27     5     6   ar
    28    27    28   ar
    29    28    29   ar
    30    29    33    1
    31    33    34    1
    32    29    30   ar
    33    30    25   ar
    34     6     1   ar
    35    12     7   ar
    36    19    14   ar
    37    22    23    1
@<TRIPOS>MOLECULE
*****
 34 37 0 0 0
SMALL
GASTEIGER

@<TRIPOS>ATOM
      1 C         140.9579  138.7505  157.5302 C.ar    1  UNL1        0.1390
      2 C         142.0612  139.7032  157.1767 C.ar    1  UNL1        0.0733
      3 C         143.3605  139.1802  156.6397 C.ar    1  UNL1        0.1679
      4 N         143.5565  137.7044  156.4562 N.ar    1  UNL1       -0.2047
      5 C         142.4531  136.7516  156.8097 C.ar    1  UNL1        0.2001
      6 N         141.1539  137.2746  157.3467 N.ar    1  UNL1       -0.2088
      7 N         144.4638  140.1330  156.2862 N.ar    1  UNL1       -0.2164
      8 N         145.2323  140.9885  157.2493 N.ar    1  UNL1       -0.1684
      9 C         146.2358  141.7818  156.4659 C.ar    1  UNL1        0.0805
     10 C         147.2155  142.7673  157.0306 C.3     1  UNL1        0.0540
     11 C         146.0875  141.4165  155.0186 C.ar    1  UNL1        0.0312
     12 C         144.9924  140.3975  154.9075 C.ar    1  UNL1        0.0637
     13 C         144.5104  139.7557  153.6404 C.3     1  UNL1        0.0522
     14 C         142.6491  135.2759  156.6263 C.ar    1  UNL1        0.1805
     15 C         141.9072  134.4014  155.6594 C.ar    1  UNL1        0.0434
     16 C         142.4209  133.0005  155.8130 C.ar    1  UNL1        0.0362
     17 C         143.4805  133.0092  156.8748 C.ar    1  UNL1        0.1234
     18 C         144.2618  131.8204  157.3505 C.3     1  UNL1        0.0725
     19 O         143.6215  134.4154  157.3774 O.2     1  UNL1       -0.4546
     20 C         139.3499  139.1554  159.5302 C.2     1  UNL1        0.2316
     21 O         140.3405  138.5143  160.4564 O.2     1  UNL1       -0.2744
     22 N         139.6587  139.2735  158.0671 N.am    1  UNL1       -0.2689
     23 H         139.0085  139.6943  157.4593 H       1  UNL1        0.1563
     24 C         138.0507  139.6784  160.0672 C.3     1  UNL1        0.1119
     25 C         138.0098  140.7317  163.8933 C.ar    1  UNL1        0.1415
     26 C         138.0227  139.8822  162.6572 C.ar    1  UNL1        0.0333
     27 C         138.0377  140.5280  161.3034 C.ar    1  UNL1       -0.0071
     28 C         138.0398  142.0234  161.1858 C.ar    1  UNL1        0.0333
     29 C         138.0268  142.8729  162.4220 C.ar    1  UNL1        0.1415
     30 C         138.0118  142.2270  163.7757 C.ar    1  UNL1        0.0737
     31 C         139.2852  139.8030  165.9575 C.3     1  UNL1        0.2525
     32 O         137.9948  140.0858  165.2471 O.3     1  UNL1       -0.4713
     33 O         138.0289  144.3683  162.3045 O.3     1  UNL1       -0.4713
     34 C         139.1544  145.1654  162.8941 C.3     1  UNL1        0.2525
@<TRIPOS>BOND
     1    31    32    1
     2    32    25    1
     3    25    26   ar
     4    26    27   ar
     5    27    24    1
     6    24    20    1
     7    20    21    2
     8    20    22   am
     9    22     1    1
    10     1     2   ar
    11     2     3   ar
    12     3     7    1
    13     7     8   ar
    14     8     9   ar
    15     9    10    1
    16     9    11   ar
    17    11    12   ar
    18    12    13    1
    19     3     4   ar
    20     4     5   ar
    21     5    14    1
    22    14    15   ar
    23    15    16   ar
    24    16    17   ar
    25    17    18    1
    26    17    19   ar
    27     5     6   ar
    28    27    28   ar
    29    28    29   ar
    30    29    33    1
    31    33    34    1
    32    29    30   ar
    33    30    25   ar
    34     6     1   ar
    35    12     7   ar
    36    19    14   ar
    37    22    23    1
@<TRIPOS>MOLECULE
*****
 34 37 0 0 0
SMALL
GASTEIGER

@<TRIPOS>ATOM
      1 C         138.1305  139.8626  154.6813 C.ar    1  UNL1        0.1390
      2 C         138.7171  141.2217  154.9231 C.ar    1  UNL1        0.0733
      3 C         137.8872  142.2933  155.5658 C.ar    1  UNL1        0.1679
      4 N         136.4707  142.0056  155.9667 N.ar    1  UNL1       -0.2047
      5 C         135.8840  140.6464  155.7249 C.ar    1  UNL1        0.2001
      6 N         136.7139  139.5749  155.0823 N.ar    1  UNL1       -0.2088
      7 N         138.4738  143.6525  155.8075 N.ar    1  UNL1       -0.2164
      8 N         138.0902  144.9173  155.0981 N.ar    1  UNL1       -0.1684
      9 C         138.9263  146.0321  155.6532 C.ar    1  UNL1        0.0805
     10 C         138.8717  147.4701  155.2301 C.3     1  UNL1        0.0540
     11 C         139.8267  145.4562  156.7058 C.ar    1  UNL1        0.0312
     12 C         139.5471  143.9856  156.8011 C.ar    1  UNL1        0.0637
     13 C         140.2221  143.0180  157.7274 C.3     1  UNL1        0.0522
     14 C         134.4676  140.3588  156.1259 C.ar    1  UNL1        0.1805
     15 C         133.2456  141.0590  155.6096 C.ar    1  UNL1        0.0434
     16 C         132.0472  140.4534  156.2781 C.ar    1  UNL1        0.0362
     17 C         132.5284  139.3788  157.2076 C.ar    1  UNL1        0.1234
     18 C         131.6653  138.5146  158.0782 C.3     1  UNL1        0.0725
     19 O         134.0243  139.3204  157.1134 O.2     1  UNL1       -0.4546
     20 C         139.1623  137.4788  154.7367 C.2     1  UNL1        0.2316
     21 O         138.5342  137.2381  156.0775 O.2     1  UNL1       -0.2744
     22 N         138.9604  138.7910  154.0386 N.am    1  UNL1       -0.2689
     23 H         139.3726  138.9490  153.1586 H       1  UNL1        0.1563
     24 C         139.9922  136.4073  154.0940 C.3     1  UNL1        0.1119
     25 C         143.7064  136.3057  155.4883 C.ar    1  UNL1        0.1415
     26 C         142.4585  136.7934  154.8140 C.ar    1  UNL1        0.0333
     27 C         141.2402  135.9195  154.7683 C.ar    1  UNL1       -0.0071
     28 C         141.2699  134.5579  155.3969 C.ar    1  UNL1        0.0333
     29 C         142.5178  134.0702  156.0712 C.ar    1  UNL1        0.1415
     30 C         143.7361  134.9441  156.1169 C.ar    1  UNL1        0.0737
     31 C         144.8441  138.6036  155.0697 C.3     1  UNL1        0.2525
     32 O         144.9247  137.1796  155.5340 O.3     1  UNL1       -0.4713
     33 O         142.5476  132.7086  156.6998 O.3     1  UNL1       -0.4713
     34 C         142.1893  131.4995  155.8875 C.3     1  UNL1        0.2525
@<TRIPOS>BOND
     1    31    32    1
     2    32    25    1
     3    25    26   ar
     4    26    27   ar
     5    27    24    1
     6    24    20    1
     7    20    21    2
     8    20    22   am
     9    22     1    1
    10     1     2   ar
    11     2     3   ar
    12     3     7    1
    13     7     8   ar
    14     8     9   ar
    15     9    10    1
    16     9    11   ar
    17    11    12   ar
    18    12    13    1
    19     3     4   ar
    20     4     5   ar
    21     5    14    1
    22    14    15   ar
    23    15    16   ar
    24    16    17   ar
    25    17    18    1
    26    17    19   ar
    27     5     6   ar
    28    27    28   ar
    29    28    29   ar
    30    29    33    1
    31    33    34    1
    32    29    30   ar
    33    30    25   ar
    34     6     1   ar
    35    12     7   ar
    36    19    14   ar
    37    22    23    1
@<TRIPOS>MOLECULE
*****
 34 37 0 0 0
SMALL
GASTEIGER

@<TRIPOS>ATOM
      1 C         138.2253  139.1877  167.5628 C.ar    1  UNL1        0.1390
      2 C         139.3521  140.1243  167.8835 C.ar    1  UNL1        0.0733
      3 C         139.6283  140.5055  169.3078 C.ar    1  UNL1        0.1679
      4 N         138.7776  139.9501  170.4113 N.ar    1  UNL1       -0.2047
      5 C         137.6507  139.0134  170.0906 C.ar    1  UNL1        0.2001
      6 N         137.3745  138.6322  168.6663 N.ar    1  UNL1       -0.2088
      7 N         140.7552  141.4422  169.6285 N.ar    1  UNL1       -0.2164
      8 N         142.2020  141.2274  169.2959 N.ar    1  UNL1       -0.1684
      9 C         142.9741  142.4105  169.7999 C.ar    1  UNL1        0.0805
     10 C         144.4557  142.6122  169.6807 C.3     1  UNL1        0.0540
     11 C         142.0045  143.3565  170.4440 C.ar    1  UNL1        0.0312
     12 C         140.6331  142.7581  170.3380 C.ar    1  UNL1        0.0637
     13 C         139.3627  143.3683  170.8515 C.3     1  UNL1        0.0522
     14 C         136.8000  138.4580  171.1941 C.ar    1  UNL1        0.1805
     15 C         135.4903  139.0178  171.6646 C.ar    1  UNL1        0.0434
     16 C         134.9905  138.1510  172.7821 C.ar    1  UNL1        0.0362
     17 C         135.9912  137.0554  173.0022 C.ar    1  UNL1        0.1234
     18 C         135.8912  135.9622  174.0243 C.3     1  UNL1        0.0725
     19 O         137.1095  137.2452  172.0207 O.2     1  UNL1       -0.4546
     20 C         139.0841  138.4586  165.2217 C.2     1  UNL1        0.2316
     21 O         140.4954  138.4918  165.7291 O.2     1  UNL1       -0.2744
     22 N         137.9491  138.8065  166.1386 N.am    1  UNL1       -0.2689
     23 H         137.0229  138.7847  165.8055 H       1  UNL1        0.1563
     24 C         138.8080  138.0774  163.7975 C.3     1  UNL1        0.1119
     25 C         141.4325  138.8635  160.9263 C.ar    1  UNL1        0.1415
     26 C         140.7224  138.1572  162.0428 C.ar    1  UNL1        0.0333
     27 C         139.5181  138.7838  162.6808 C.ar    1  UNL1       -0.0071
     28 C         139.0239  140.1167  162.2022 C.ar    1  UNL1        0.0333
     29 C         139.7341  140.8230  161.0857 C.ar    1  UNL1        0.1415
     30 C         140.9384  140.1964  160.4477 C.ar    1  UNL1        0.0737
     31 C         144.0096  138.5585  160.8003 C.3     1  UNL1        0.2525
     32 O         142.6368  138.2369  160.2883 O.3     1  UNL1       -0.4713
     33 O         139.2399  142.1560  160.6070 O.3     1  UNL1       -0.4713
     34 C         138.7546  143.1749  161.5951 C.3     1  UNL1        0.2525
@<TRIPOS>BOND
     1    31    32    1
     2    32    25    1
     3    25    26   ar
     4    26    27   ar
     5    27    24    1
     6    24    20    1
     7    20    21    2
     8    20    22   am
     9    22     1    1
    10     1     2   ar
    11     2     3   ar
    12     3     7    1
    13     7     8   ar
    14     8     9   ar
    15     9    10    1
    16     9    11   ar
    17    11    12   ar
    18    12    13    1
    19     3     4   ar
    20     4     5   ar
    21     5    14    1
    22    14    15   ar
    23    15    16   ar
    24    16    17   ar
    25    17    18    1
    26    17    19   ar
    27     5     6   ar
    28    27    28   ar
    29    28    29   ar
    30    29    33    1
    31    33    34    1
    32    29    30   ar
    33    30    25   ar
    34     6     1   ar
    35    12     7   ar
    36    19    14   ar
    37    22    23    1
@<TRIPOS>MOLECULE
*****
 34 37 0 0 0
SMALL
GASTEIGER

@<TRIPOS>ATOM
      1 C         138.2965  140.0026  154.7236 C.ar    1  UNL1        0.1390
      2 C         138.8595  141.3695  154.9778 C.ar    1  UNL1        0.0733
      3 C         138.0038  142.4276  155.6089 C.ar    1  UNL1        0.1679
      4 N         136.5852  142.1187  155.9858 N.ar    1  UNL1       -0.2047
      5 C         136.0222  140.7518  155.7316 C.ar    1  UNL1        0.2001
      6 N         136.8779  139.6937  155.1005 N.ar    1  UNL1       -0.2088
      7 N         138.5668  143.7945  155.8631 N.ar    1  UNL1       -0.2164
      8 N         138.1882  145.0526  155.1392 N.ar    1  UNL1       -0.1684
      9 C         138.9946  146.1790  155.7144 C.ar    1  UNL1        0.0805
     10 C         138.9346  147.6151  155.2856 C.3     1  UNL1        0.0540
     11 C         139.8716  145.6170  156.7939 C.ar    1  UNL1        0.0312
     12 C         139.6072  144.1434  156.8857 C.ar    1  UNL1        0.0637
     13 C         140.2672  143.1866  157.8338 C.3     1  UNL1        0.0522
     14 C         134.6036  140.4430  156.1085 C.ar    1  UNL1        0.1805
     15 C         133.3781  141.0920  155.5367 C.ar    1  UNL1        0.0434
     16 C         132.1785  140.4811  156.1982 C.ar    1  UNL1        0.0362
     17 C         132.6625  139.4544  157.1789 C.ar    1  UNL1        0.1234
     18 C         131.7993  138.6011  158.0602 C.3     1  UNL1        0.0725
     19 O         134.1613  139.4308  157.1234 O.2     1  UNL1       -0.4546
     20 C         139.1692  137.5563  154.6603 C.2     1  UNL1        0.2316
     21 O         138.3304  137.2261  155.8593 O.2     1  UNL1       -0.2744
     22 N         139.1522  138.9445  154.0925 N.am    1  UNL1       -0.2689
     23 H         139.7027  139.1613  153.3056 H       1  UNL1        0.1563
     24 C         140.0248  136.4982  154.0292 C.3     1  UNL1        0.1119
     25 C         142.4711  134.1599  156.1024 C.ar    1  UNL1        0.1415
     26 C         141.2452  134.6545  155.3935 C.ar    1  UNL1        0.0333
     27 C         141.2509  136.0037  154.7380 C.ar    1  UNL1       -0.0071
     28 C         142.4824  136.8583  154.7913 C.ar    1  UNL1        0.0333
     29 C         143.7083  136.3637  155.5002 C.ar    1  UNL1        0.1415
     30 C         143.7027  135.0145  156.1557 C.ar    1  UNL1        0.0737
     31 C         143.3595  131.7225  156.2419 C.3     1  UNL1        0.2525
     32 O         142.4655  132.8107  156.7579 O.3     1  UNL1       -0.4713
     33 O         144.9400  137.2183  155.5535 O.3     1  UNL1       -0.4713
     34 C         144.9049  138.6187  155.0173 C.3     1  UNL1        0.2525
@<TRIPOS>BOND
     1    31    32    1
     2    32    25    1
     3    25    26   ar
     4    26    27   ar
     5    27    24    1
     6    24    20    1
     7    20    21    2
     8    20    22   am
     9    22     1    1
    10     1     2   ar
    11     2     3   ar
    12     3     7    1
    13     7     8   ar
    14     8     9   ar
    15     9    10    1
    16     9    11   ar
    17    11    12   ar
    18    12    13    1
    19     3     4   ar
    20     4     5   ar
    21     5    14    1
    22    14    15   ar
    23    15    16   ar
    24    16    17   ar
    25    17    18    1
    26    17    19   ar
    27     5     6   ar
    28    27    28   ar
    29    28    29   ar
    30    29    33    1
    31    33    34    1
    32    29    30   ar
    33    30    25   ar
    34     6     1   ar
    35    12     7   ar
    36    19    14   ar
    37    22    23    1
@<TRIPOS>MOLECULE
*****
 34 37 0 0 0
SMALL
GASTEIGER

@<TRIPOS>ATOM
      1 C         142.7368  139.1557  158.8879 C.ar    1  UNL1        0.1390
      2 C         142.6883  138.5830  160.2734 C.ar    1  UNL1        0.0733
      3 C         142.2558  139.4413  161.4250 C.ar    1  UNL1        0.1679
      4 N         141.8720  140.8723  161.1912 N.ar    1  UNL1       -0.2047
      5 C         141.9205  141.4452  159.8057 C.ar    1  UNL1        0.2001
      6 N         142.3529  140.5868  158.6540 N.ar    1  UNL1       -0.2088
      7 N         142.2073  138.8685  162.8106 N.ar    1  UNL1       -0.2164
      8 N         143.2702  139.0076  163.8598 N.ar    1  UNL1       -0.1684
      9 C         142.8072  138.2811  165.0878 C.ar    1  UNL1        0.0805
     10 C         143.5609  138.1634  166.3793 C.3     1  UNL1        0.0540
     11 C         141.4582  137.6931  164.7974 C.ar    1  UNL1        0.0312
     12 C         141.0874  138.0561  163.3901 C.ar    1  UNL1        0.0637
     13 C         139.8195  137.6739  162.6858 C.3     1  UNL1        0.0522
     14 C         141.5367  142.8762  159.5719 C.ar    1  UNL1        0.1805
     15 C         141.5017  143.9602  160.6081 C.ar    1  UNL1        0.0434
     16 C         141.0638  145.2285  159.9375 C.ar    1  UNL1        0.0362
     17 C         140.8281  144.9283  158.4868 C.ar    1  UNL1        0.1234
     18 C         140.3790  145.9096  157.4450 C.3     1  UNL1        0.0725
     19 O         141.1203  143.4745  158.2609 O.2     1  UNL1       -0.4546
     20 C         142.1594  137.4719  156.9955 C.2     1  UNL1        0.2316
     21 O         140.7171  137.5047  157.4064 O.2     1  UNL1       -0.2744
     22 N         143.1692  138.2974  157.7363 N.am    1  UNL1       -0.2689
     23 H         144.1158  138.2759  157.4666 H       1  UNL1        0.1563
     24 C         142.5918  136.6136  155.8438 C.3     1  UNL1        0.1119
     25 C         143.8090  133.0000  156.9442 C.ar    1  UNL1        0.1415
     26 C         143.7541  134.4909  156.7892 C.ar    1  UNL1        0.0333
     27 C         142.6467  135.1226  155.9988 C.ar    1  UNL1       -0.0071
     28 C         141.5941  134.2633  155.3635 C.ar    1  UNL1        0.0333
     29 C         141.6490  132.7723  155.5185 C.ar    1  UNL1        0.1415
     30 C         142.7565  132.1407  156.3088 C.ar    1  UNL1        0.0737
     31 C         144.8499  130.9120  158.0872 C.3     1  UNL1        0.2525
     32 O         144.9164  132.3684  157.7345 O.3     1  UNL1       -0.4713
     33 O         140.5965  131.9129  154.8831 O.3     1  UNL1       -0.4713
     34 C         140.8238  131.3348  153.5178 C.3     1  UNL1        0.2525
@<TRIPOS>BOND
     1    31    32    1
     2    32    25    1
     3    25    26   ar
     4    26    27   ar
     5    27    24    1
     6    24    20    1
     7    20    21    2
     8    20    22   am
     9    22     1    1
    10     1     2   ar
    11     2     3   ar
    12     3     7    1
    13     7     8   ar
    14     8     9   ar
    15     9    10    1
    16     9    11   ar
    17    11    12   ar
    18    12    13    1
    19     3     4   ar
    20     4     5   ar
    21     5    14    1
    22    14    15   ar
    23    15    16   ar
    24    16    17   ar
    25    17    18    1
    26    17    19   ar
    27     5     6   ar
    28    27    28   ar
    29    28    29   ar
    30    29    33    1
    31    33    34    1
    32    29    30   ar
    33    30    25   ar
    34     6     1   ar
    35    12     7   ar
    36    19    14   ar
    37    22    23    1
