@<TRIPOS>MOLECULE
*****
 28 31 0 0 0
SMALL
GASTEIGER

@<TRIPOS>ATOM
      1 C         139.1792  141.6784  164.6630 C.ar    1  UNL1        0.0681
      2 C         140.0395  141.1810  163.5393 C.ar    1  UNL1        0.0208
      3 C         139.7435  141.5951  162.1283 C.ar    1  UNL1        0.0384
      4 C         138.5874  142.5065  161.8410 C.ar    1  UNL1        0.1386
      5 C         137.7271  143.0038  162.9647 C.ar    1  UNL1        0.0384
      6 C         138.0231  142.5898  164.3757 C.ar    1  UNL1        0.0208
      7 C         138.0452  139.1203  165.7446 C.3     1  UNL1        0.0723
      8 C         138.9082  139.9852  166.6148 C.ar    1  UNL1        0.1268
      9 N         139.2041  139.5711  168.0258 N.ar    1  UNL1       -0.2318
     10 C         140.0671  140.4360  168.8960 C.ar    1  UNL1        0.0872
     11 C         140.3631  140.0219  170.3070 C.ar    1  UNL1        0.0193
     12 C         141.2261  140.8868  171.1771 C.ar    1  UNL1        0.0015
     13 C         141.7931  142.1658  170.6363 C.ar    1  UNL1        0.0003
     14 C         141.4971  142.5800  169.2253 C.ar    1  UNL1        0.0063
     15 C         140.6342  141.7151  168.3552 C.ar    1  UNL1        0.0742
     16 C         140.3382  142.1292  166.9441 C.ar    1  UNL1        0.2669
     17 O         140.9052  143.4082  166.4033 O.2     1  UNL1       -0.2665
     18 N         139.4752  141.2643  166.0740 N.ar    1  UNL1       -0.2626
     19 O         138.2914  142.9206  160.4299 O.3     1  UNL1       -0.4754
     20 C         139.3889  142.9384  159.4077 C.3     1  UNL1        0.2068
     21 C         139.9570  144.2454  158.9398 C.3     1  UNL1        0.0646
     22 C         141.2566  144.7420  159.5004 C.3     1  UNL1        0.0759
     23 N         141.5064  144.6851  160.9783 N.3     1  UNL1       -0.2738
     24 C         142.5754  143.8847  161.6617 C.3     1  UNL1        0.0721
     25 C         142.4608  144.1235  163.1381 C.3     1  UNL1        0.0187
     26 C         141.3211  145.0714  163.3674 C.3     1  UNL1        0.0174
     27 C         140.7313  145.4185  162.0325 C.3     1  UNL1        0.0576
     28 C         139.5702  146.3377  161.7938 C.3     1  UNL1        0.0173
@<TRIPOS>BOND
     1     7     8    1
     2     8     9   ar
     3     9    10   ar
     4    10    11   ar
     5    11    12   ar
     6    12    13   ar
     7    13    14   ar
     8    14    15   ar
     9    15    16   ar
    10    16    17    2
    11    16    18   ar
    12    18     1    1
    13     1     2   ar
    14     2     3   ar
    15     3     4   ar
    16     4    19    1
    17    19    20    1
    18    20    21    1
    19    21    22    1
    20    22    23    1
    21    23    24    1
    22    24    25    1
    23    25    26    1
    24    26    27    1
    25    27    28    1
    26     4     5   ar
    27     5     6   ar
    28    18     8   ar
    29     6     1   ar
    30    15    10   ar
    31    27    23    1
@<TRIPOS>MOLECULE
*****
 28 31 0 0 0
SMALL
GASTEIGER

@<TRIPOS>ATOM
      1 C         139.5754  141.5809  164.5302 C.ar    1  UNL1        0.0681
      2 C         138.5018  142.6210  164.4049 C.ar    1  UNL1        0.0208
      3 C         138.0568  143.0798  163.0479 C.ar    1  UNL1        0.0384
      4 C         138.6853  142.4985  161.8163 C.ar    1  UNL1        0.1386
      5 C         139.7589  141.4584  161.9416 C.ar    1  UNL1        0.0384
      6 C         140.2039  140.9996  163.2986 C.ar    1  UNL1        0.0208
      7 C         138.0636  139.4142  165.9515 C.3     1  UNL1        0.0723
      8 C         139.2645  140.0388  166.5979 C.ar    1  UNL1        0.1268
      9 N         139.7094  139.5800  167.9549 N.ar    1  UNL1       -0.2318
     10 C         140.9104  140.2046  168.6014 C.ar    1  UNL1        0.0872
     11 C         141.3553  139.7458  169.9584 C.ar    1  UNL1        0.0193
     12 C         142.5561  140.3704  170.6047 C.ar    1  UNL1        0.0015
     13 C         143.3120  141.4537  169.8941 C.ar    1  UNL1        0.0003
     14 C         142.8671  141.9125  168.5371 C.ar    1  UNL1        0.0063
     15 C         141.6662  141.2879  167.8907 C.ar    1  UNL1        0.0742
     16 C         141.2212  141.7467  166.5337 C.ar    1  UNL1        0.2669
     17 O         141.9771  142.8301  165.8230 O.2     1  UNL1       -0.2665
     18 N         140.0204  141.1222  165.8873 N.ar    1  UNL1       -0.2626
     19 O         138.2403  142.9573  160.4592 O.3     1  UNL1       -0.4754
     20 C         139.1505  142.7973  159.2777 C.3     1  UNL1        0.2068
     21 C         139.5925  144.0031  158.5027 C.3     1  UNL1        0.0646
     22 C         140.6999  144.8678  159.0282 C.3     1  UNL1        0.0759
     23 N         140.9484  144.9533  160.5049 N.3     1  UNL1       -0.2738
     24 C         140.1863  145.8014  161.4797 C.3     1  UNL1        0.0721
     25 C         140.7695  145.5780  162.8435 C.3     1  UNL1        0.0187
     26 C         141.8920  144.5917  162.7117 C.3     1  UNL1        0.0174
     27 C         142.0026  144.2057  161.2664 C.3     1  UNL1        0.0576
     28 C         142.9934  143.2413  160.6847 C.3     1  UNL1        0.0173
@<TRIPOS>BOND
     1     7     8    1
     2     8     9   ar
     3     9    10   ar
     4    10    11   ar
     5    11    12   ar
     6    12    13   ar
     7    13    14   ar
     8    14    15   ar
     9    15    16   ar
    10    16    17    2
    11    16    18   ar
    12    18     1    1
    13     1     2   ar
    14     2     3   ar
    15     3     4   ar
    16     4    19    1
    17    19    20    1
    18    20    21    1
    19    21    22    1
    20    22    23    1
    21    23    24    1
    22    24    25    1
    23    25    26    1
    24    26    27    1
    25    27    28    1
    26     4     5   ar
    27     5     6   ar
    28    18     8   ar
    29     6     1   ar
    30    15    10   ar
    31    27    23    1
@<TRIPOS>MOLECULE
*****
 28 31 0 0 0
SMALL
GASTEIGER

@<TRIPOS>ATOM
      1 C         139.2154  141.3052  164.5039 C.ar    1  UNL1        0.0681
      2 C         140.3603  141.2792  163.5351 C.ar    1  UNL1        0.0208
      3 C         140.1180  141.5524  162.0803 C.ar    1  UNL1        0.0384
      4 C         138.7309  141.8516  161.5943 C.ar    1  UNL1        0.1386
      5 C         137.5860  141.8775  162.5631 C.ar    1  UNL1        0.0384
      6 C         137.8282  141.6043  164.0179 C.ar    1  UNL1        0.0208
      7 C         138.2850  138.7257  165.7210 C.3     1  UNL1        0.0723
      8 C         138.9925  139.7422  166.5674 C.ar    1  UNL1        0.1268
      9 N         139.2348  139.4689  168.0222 N.ar    1  UNL1       -0.2318
     10 C         139.9423  140.4854  168.8686 C.ar    1  UNL1        0.0872
     11 C         140.1846  140.2121  170.3234 C.ar    1  UNL1        0.0193
     12 C         140.8921  141.2286  171.1697 C.ar    1  UNL1        0.0015
     13 C         141.3572  142.5183  170.5612 C.ar    1  UNL1        0.0003
     14 C         141.1150  142.7915  169.1064 C.ar    1  UNL1        0.0063
     15 C         140.4075  141.7751  168.2601 C.ar    1  UNL1        0.0742
     16 C         140.1652  142.0484  166.8052 C.ar    1  UNL1        0.2669
     17 O         140.6303  143.3381  166.1967 O.2     1  UNL1       -0.2665
     18 N         139.4577  141.0319  165.9589 N.ar    1  UNL1       -0.2626
     19 O         138.4885  142.1248  160.1393 O.3     1  UNL1       -0.4754
     20 C         138.3161  140.9842  159.1806 C.3     1  UNL1        0.2068
     21 C         139.5066  140.1798  158.7500 C.3     1  UNL1        0.0646
     22 C         139.6070  138.7303  159.1225 C.3     1  UNL1        0.0759
     23 N         140.1485  138.3366  160.4647 N.3     1  UNL1       -0.2738
     24 C         141.5949  138.1341  160.8072 C.3     1  UNL1        0.0721
     25 C         141.6791  137.7486  162.2543 C.3     1  UNL1        0.0187
     26 C         140.2848  137.7128  162.8064 C.3     1  UNL1        0.0174
     27 C         139.3388  138.0761  161.7003 C.3     1  UNL1        0.0576
     28 C         137.8455  138.1637  161.8106 C.3     1  UNL1        0.0173
@<TRIPOS>BOND
     1     7     8    1
     2     8     9   ar
     3     9    10   ar
     4    10    11   ar
     5    11    12   ar
     6    12    13   ar
     7    13    14   ar
     8    14    15   ar
     9    15    16   ar
    10    16    17    2
    11    16    18   ar
    12    18     1    1
    13     1     2   ar
    14     2     3   ar
    15     3     4   ar
    16     4    19    1
    17    19    20    1
    18    20    21    1
    19    21    22    1
    20    22    23    1
    21    23    24    1
    22    24    25    1
    23    25    26    1
    24    26    27    1
    25    27    28    1
    26     4     5   ar
    27     5     6   ar
    28    18     8   ar
    29     6     1   ar
    30    15    10   ar
    31    27    23    1
@<TRIPOS>MOLECULE
*****
 28 31 0 0 0
SMALL
GASTEIGER

@<TRIPOS>ATOM
      1 C         138.8373  139.9726  165.0340 C.ar    1  UNL1        0.0681
      2 C         139.1549  138.6837  164.3355 C.ar    1  UNL1        0.0208
      3 C         138.6942  138.4615  162.9254 C.ar    1  UNL1        0.0384
      4 C         137.9159  139.5282  162.2138 C.ar    1  UNL1        0.1386
      5 C         137.5982  140.8170  162.9123 C.ar    1  UNL1        0.0384
      6 C         138.0589  141.0393  164.3224 C.ar    1  UNL1        0.0208
      7 C         137.5117  138.5101  167.2931 C.3     1  UNL1        0.0723
      8 C         138.6352  139.4635  167.5737 C.ar    1  UNL1        0.1268
      9 N         139.0959  139.6857  168.9837 N.ar    1  UNL1       -0.2318
     10 C         140.2194  140.6391  169.2643 C.ar    1  UNL1        0.0872
     11 C         140.6801  140.8613  170.6744 C.ar    1  UNL1        0.0193
     12 C         141.8036  141.8147  170.9549 C.ar    1  UNL1        0.0015
     13 C         142.4664  142.5459  169.8253 C.ar    1  UNL1        0.0003
     14 C         142.0057  142.3238  168.4153 C.ar    1  UNL1        0.0063
     15 C         140.8822  141.3704  168.1347 C.ar    1  UNL1        0.0742
     16 C         140.4215  141.1482  166.7246 C.ar    1  UNL1        0.2669
     17 O         141.0843  141.8795  165.5950 O.2     1  UNL1       -0.2665
     18 N         139.2980  140.1948  166.4441 N.ar    1  UNL1       -0.2626
     19 O         137.4551  139.3060  160.8037 O.3     1  UNL1       -0.4754
     20 C         138.2755  139.8182  159.6571 C.3     1  UNL1        0.2068
     21 C         139.4869  139.0588  159.2035 C.3     1  UNL1        0.0646
     22 C         140.8584  139.5990  159.4815 C.3     1  UNL1        0.0759
     23 N         141.5211  139.3214  160.7982 N.3     1  UNL1       -0.2738
     24 C         142.1791  138.0347  161.2002 C.3     1  UNL1        0.0721
     25 C         142.7069  138.1998  162.5946 C.3     1  UNL1        0.0187
     26 C         142.3750  139.5885  163.0544 C.3     1  UNL1        0.0174
     27 C         141.6421  140.2817  161.9442 C.3     1  UNL1        0.0576
     28 C         141.1217  141.6882  161.9746 C.3     1  UNL1        0.0173
@<TRIPOS>BOND
     1     7     8    1
     2     8     9   ar
     3     9    10   ar
     4    10    11   ar
     5    11    12   ar
     6    12    13   ar
     7    13    14   ar
     8    14    15   ar
     9    15    16   ar
    10    16    17    2
    11    16    18   ar
    12    18     1    1
    13     1     2   ar
    14     2     3   ar
    15     3     4   ar
    16     4    19    1
    17    19    20    1
    18    20    21    1
    19    21    22    1
    20    22    23    1
    21    23    24    1
    22    24    25    1
    23    25    26    1
    24    26    27    1
    25    27    28    1
    26     4     5   ar
    27     5     6   ar
    28    18     8   ar
    29     6     1   ar
    30    15    10   ar
    31    27    23    1
@<TRIPOS>MOLECULE
*****
 28 31 0 0 0
SMALL
GASTEIGER

@<TRIPOS>ATOM
      1 C         139.9695  139.2120  164.9960 C.ar    1  UNL1        0.0681
      2 C         139.2790  140.0673  163.9753 C.ar    1  UNL1        0.0208
      3 C         139.1113  139.5703  162.5701 C.ar    1  UNL1        0.0384
      4 C         139.6340  138.2180  162.1854 C.ar    1  UNL1        0.1386
      5 C         140.3245  137.3627  163.2060 C.ar    1  UNL1        0.0384
      6 C         140.4922  137.8597  164.6113 C.ar    1  UNL1        0.0208
      7 C         137.8276  138.7007  167.0334 C.3     1  UNL1        0.0723
      8 C         139.0663  139.4534  167.4200 C.ar    1  UNL1        0.1268
      9 N         139.2339  139.9504  168.8253 N.ar    1  UNL1       -0.2318
     10 C         140.4725  140.7030  169.2119 C.ar    1  UNL1        0.0872
     11 C         140.6402  141.2000  170.6172 C.ar    1  UNL1        0.0193
     12 C         141.8788  141.9526  171.0038 C.ar    1  UNL1        0.0015
     13 C         142.9497  142.2082  169.9850 C.ar    1  UNL1        0.0003
     14 C         142.7820  141.7112  168.5798 C.ar    1  UNL1        0.0063
     15 C         141.5435  140.9586  168.1932 C.ar    1  UNL1        0.0742
     16 C         141.3758  140.4616  166.7879 C.ar    1  UNL1        0.2669
     17 O         142.4467  140.7172  165.7691 O.2     1  UNL1       -0.2665
     18 N         140.1372  139.7090  166.4013 N.ar    1  UNL1       -0.2626
     19 O         139.4663  137.7210  160.7801 O.3     1  UNL1       -0.4754
     20 C         139.4538  138.6927  159.6374 C.3     1  UNL1        0.2068
     21 C         140.5244  138.6309  158.5886 C.3     1  UNL1        0.0646
     22 C         141.8614  139.2615  158.8435 C.3     1  UNL1        0.0759
     23 N         142.5097  139.1268  160.1894 N.3     1  UNL1       -0.2738
     24 C         143.2279  137.9149  160.7049 C.3     1  UNL1        0.0721
     25 C         143.7159  138.2195  162.0902 C.3     1  UNL1        0.0187
     26 C         143.2993  139.6197  162.4310 C.3     1  UNL1        0.0174
     27 C         142.5539  140.1804  161.2562 C.3     1  UNL1        0.0576
     28 C         141.9573  141.5536  161.1644 C.3     1  UNL1        0.0173
@<TRIPOS>BOND
     1     7     8    1
     2     8     9   ar
     3     9    10   ar
     4    10    11   ar
     5    11    12   ar
     6    12    13   ar
     7    13    14   ar
     8    14    15   ar
     9    15    16   ar
    10    16    17    2
    11    16    18   ar
    12    18     1    1
    13     1     2   ar
    14     2     3   ar
    15     3     4   ar
    16     4    19    1
    17    19    20    1
    18    20    21    1
    19    21    22    1
    20    22    23    1
    21    23    24    1
    22    24    25    1
    23    25    26    1
    24    26    27    1
    25    27    28    1
    26     4     5   ar
    27     5     6   ar
    28    18     8   ar
    29     6     1   ar
    30    15    10   ar
    31    27    23    1
@<TRIPOS>MOLECULE
*****
 28 31 0 0 0
SMALL
GASTEIGER

@<TRIPOS>ATOM
      1 C         141.3951  139.1088  164.9490 C.ar    1  UNL1        0.0681
      2 C         140.8766  137.7492  164.5848 C.ar    1  UNL1        0.0208
      3 C         140.6425  137.3965  163.1458 C.ar    1  UNL1        0.0384
      4 C         140.9269  138.4034  162.0710 C.ar    1  UNL1        0.1386
      5 C         141.4454  139.7630  162.4352 C.ar    1  UNL1        0.0384
      6 C         141.6795  140.1157  163.8742 C.ar    1  UNL1        0.0208
      7 C         143.8582  138.1272  166.3524 C.3     1  UNL1        0.0723
      8 C         142.8607  138.9707  167.0898 C.ar    1  UNL1        0.1268
      9 N         143.0948  139.3233  168.5288 N.ar    1  UNL1       -0.2318
     10 C         142.0973  140.1668  169.2662 C.ar    1  UNL1        0.0872
     11 C         142.3314  140.5195  170.7052 C.ar    1  UNL1        0.0193
     12 C         141.3340  141.3629  171.4425 C.ar    1  UNL1        0.0015
     13 C         140.1024  141.8537  170.7408 C.ar    1  UNL1        0.0003
     14 C         139.8683  141.5011  169.3018 C.ar    1  UNL1        0.0063
     15 C         140.8658  140.6576  168.5645 C.ar    1  UNL1        0.0742
     16 C         140.6317  140.3049  167.1254 C.ar    1  UNL1        0.2669
     17 O         139.4001  140.7957  166.4237 O.2     1  UNL1       -0.2665
     18 N         141.6291  139.4615  166.3881 N.ar    1  UNL1       -0.2626
     19 O         140.6928  138.0507  160.6319 O.3     1  UNL1       -0.4754
     20 C         139.5219  138.6337  159.8978 C.3     1  UNL1        0.2068
     21 C         138.3305  139.1316  160.6610 C.3     1  UNL1        0.0646
     22 C         137.9193  140.5702  160.5546 C.3     1  UNL1        0.0759
     23 N         138.0862  141.4868  161.7301 N.3     1  UNL1       -0.2738
     24 C         137.3114  141.4253  163.0132 C.3     1  UNL1        0.0721
     25 C         137.8035  142.5264  163.9051 C.3     1  UNL1        0.0187
     26 C         138.8824  143.2685  163.1733 C.3     1  UNL1        0.0174
     27 C         139.0571  142.6260  161.8291 C.3     1  UNL1        0.0576
     28 C         140.0315  143.0484  160.7699 C.3     1  UNL1        0.0173
@<TRIPOS>BOND
     1     7     8    1
     2     8     9   ar
     3     9    10   ar
     4    10    11   ar
     5    11    12   ar
     6    12    13   ar
     7    13    14   ar
     8    14    15   ar
     9    15    16   ar
    10    16    17    2
    11    16    18   ar
    12    18     1    1
    13     1     2   ar
    14     2     3   ar
    15     3     4   ar
    16     4    19    1
    17    19    20    1
    18    20    21    1
    19    21    22    1
    20    22    23    1
    21    23    24    1
    22    24    25    1
    23    25    26    1
    24    26    27    1
    25    27    28    1
    26     4     5   ar
    27     5     6   ar
    28    18     8   ar
    29     6     1   ar
    30    15    10   ar
    31    27    23    1
@<TRIPOS>MOLECULE
*****
 28 31 0 0 0
SMALL
GASTEIGER

@<TRIPOS>ATOM
      1 C         141.9167  143.5427  162.8097 C.ar    1  UNL1        0.0681
      2 C         141.1754  142.3584  163.3554 C.ar    1  UNL1        0.0208
      3 C         141.6005  141.7410  164.6547 C.ar    1  UNL1        0.0384
      4 C         142.7669  142.3081  165.4082 C.ar    1  UNL1        0.1386
      5 C         143.5082  143.4924  164.8626 C.ar    1  UNL1        0.0384
      6 C         143.0831  144.1098  163.5633 C.ar    1  UNL1        0.0208
      7 C         139.5573  145.3940  162.7296 C.3     1  UNL1        0.0723
      8 C         140.3118  145.0857  161.4703 C.ar    1  UNL1        0.1268
      9 N         139.8867  145.7030  160.1711 N.ar    1  UNL1       -0.2318
     10 C         140.6412  145.3947  158.9118 C.ar    1  UNL1        0.0872
     11 C         140.2160  146.0120  157.6125 C.ar    1  UNL1        0.0193
     12 C         140.9705  145.7037  156.3533 C.ar    1  UNL1        0.0015
     13 C         142.1502  144.7781  156.3934 C.ar    1  UNL1        0.0003
     14 C         142.5753  144.1608  157.6926 C.ar    1  UNL1        0.0063
     15 C         141.8208  144.4691  158.9518 C.ar    1  UNL1        0.0742
     16 C         142.2460  143.8517  160.2512 C.ar    1  UNL1        0.2669
     17 O         143.4257  142.9261  160.2912 O.2     1  UNL1       -0.2665
     18 N         141.4915  144.1600  161.5104 N.ar    1  UNL1       -0.2626
     19 O         143.1920  141.6908  166.7076 O.3     1  UNL1       -0.4754
     20 C         142.2841  140.7272  167.4127 C.3     1  UNL1        0.2068
     21 C         142.5727  139.2559  167.3693 C.3     1  UNL1        0.0646
     22 C         143.4025  138.6869  166.2568 C.3     1  UNL1        0.0759
     23 N         142.7611  138.3337  164.9477 N.3     1  UNL1       -0.2738
     24 C         141.5226  137.5068  164.7674 C.3     1  UNL1        0.0721
     25 C         141.2416  137.4073  163.2973 C.3     1  UNL1        0.0187
     26 C         142.3064  138.1728  162.5690 C.3     1  UNL1        0.0174
     27 C         143.2455  138.7453  163.5891 C.3     1  UNL1        0.0576
     28 C         144.4564  139.5824  163.3010 C.3     1  UNL1        0.0173
@<TRIPOS>BOND
     1     7     8    1
     2     8     9   ar
     3     9    10   ar
     4    10    11   ar
     5    11    12   ar
     6    12    13   ar
     7    13    14   ar
     8    14    15   ar
     9    15    16   ar
    10    16    17    2
    11    16    18   ar
    12    18     1    1
    13     1     2   ar
    14     2     3   ar
    15     3     4   ar
    16     4    19    1
    17    19    20    1
    18    20    21    1
    19    21    22    1
    20    22    23    1
    21    23    24    1
    22    24    25    1
    23    25    26    1
    24    26    27    1
    25    27    28    1
    26     4     5   ar
    27     5     6   ar
    28    18     8   ar
    29     6     1   ar
    30    15    10   ar
    31    27    23    1
@<TRIPOS>MOLECULE
*****
 28 31 0 0 0
SMALL
GASTEIGER

@<TRIPOS>ATOM
      1 C         142.5114  141.8183  164.2400 C.ar    1  UNL1        0.0681
      2 C         141.7883  141.2561  163.0521 C.ar    1  UNL1        0.0208
      3 C         142.0458  141.8146  161.6840 C.ar    1  UNL1        0.0384
      4 C         143.0264  142.9353  161.5038 C.ar    1  UNL1        0.1386
      5 C         143.7495  143.4974  162.6917 C.ar    1  UNL1        0.0384
      6 C         143.4920  142.9390  164.0598 C.ar    1  UNL1        0.0208
      7 C         143.9086  139.3157  165.1259 C.3     1  UNL1        0.0723
      8 C         142.9524  140.0085  166.0511 C.ar    1  UNL1        0.1268
      9 N         142.6949  139.4499  167.4192 N.ar    1  UNL1       -0.2318
     10 C         141.7387  140.1426  168.3444 C.ar    1  UNL1        0.0872
     11 C         141.4812  139.5841  169.7124 C.ar    1  UNL1        0.0193
     12 C         140.5251  140.2768  170.6376 C.ar    1  UNL1        0.0015
     13 C         139.8265  141.5281  170.1946 C.ar    1  UNL1        0.0003
     14 C         140.0840  142.0866  168.8266 C.ar    1  UNL1        0.0063
     15 C         141.0401  141.3939  167.9014 C.ar    1  UNL1        0.0742
     16 C         141.2977  141.9525  166.5333 C.ar    1  UNL1        0.2669
     17 O         140.5991  143.2038  166.0903 O.2     1  UNL1       -0.2665
     18 N         142.2538  141.2597  165.6082 N.ar    1  UNL1       -0.2626
     19 O         143.2840  143.4939  160.1357 O.3     1  UNL1       -0.4754
     20 C         142.1679  144.1343  159.3648 C.3     1  UNL1        0.2068
     21 C         140.9408  143.3420  159.0237 C.3     1  UNL1        0.0646
     22 C         139.5861  143.8500  159.4195 C.3     1  UNL1        0.0759
     23 N         139.0816  143.6319  160.8151 N.3     1  UNL1       -0.2738
     24 C         138.1723  142.5253  161.2611 C.3     1  UNL1        0.0721
     25 C         137.9265  142.6915  162.7315 C.3     1  UNL1        0.0187
     26 C         138.6839  143.9008  163.1943 C.3     1  UNL1        0.0174
     27 C         139.3977  144.4820  162.0098 C.3     1  UNL1        0.0576
     28 C         140.2739  145.6995  162.0187 C.3     1  UNL1        0.0173
@<TRIPOS>BOND
     1     7     8    1
     2     8     9   ar
     3     9    10   ar
     4    10    11   ar
     5    11    12   ar
     6    12    13   ar
     7    13    14   ar
     8    14    15   ar
     9    15    16   ar
    10    16    17    2
    11    16    18   ar
    12    18     1    1
    13     1     2   ar
    14     2     3   ar
    15     3     4   ar
    16     4    19    1
    17    19    20    1
    18    20    21    1
    19    21    22    1
    20    22    23    1
    21    23    24    1
    22    24    25    1
    23    25    26    1
    24    26    27    1
    25    27    28    1
    26     4     5   ar
    27     5     6   ar
    28    18     8   ar
    29     6     1   ar
    30    15    10   ar
    31    27    23    1
@<TRIPOS>MOLECULE
*****
 28 31 0 0 0
SMALL
GASTEIGER

@<TRIPOS>ATOM
      1 C         140.7614  139.6344  164.3617 C.ar    1  UNL1        0.0681
      2 C         141.5325  140.0073  163.1303 C.ar    1  UNL1        0.0208
      3 C         141.0664  139.5399  161.7833 C.ar    1  UNL1        0.0384
      4 C         139.8294  138.6995  161.6678 C.ar    1  UNL1        0.1386
      5 C         139.0583  138.3266  162.8993 C.ar    1  UNL1        0.0384
      6 C         139.5244  138.7940  164.2462 C.ar    1  UNL1        0.0208
      7 C         142.9540  138.1619  165.7845 C.3     1  UNL1        0.0723
      8 C         142.3238  139.3656  166.4201 C.ar    1  UNL1        0.1268
      9 N         142.7899  139.8331  167.7670 N.ar    1  UNL1       -0.2318
     10 C         142.1597  141.0368  168.4026 C.ar    1  UNL1        0.0872
     11 C         142.6258  141.5043  169.7495 C.ar    1  UNL1        0.0193
     12 C         141.9956  142.7080  170.3850 C.ar    1  UNL1        0.0015
     13 C         140.8994  143.4442  169.6736 C.ar    1  UNL1        0.0003
     14 C         140.4333  142.9768  168.3267 C.ar    1  UNL1        0.0063
     15 C         141.0634  141.7731  167.6912 C.ar    1  UNL1        0.0742
     16 C         140.5973  141.3056  166.3442 C.ar    1  UNL1        0.2669
     17 O         139.5011  142.0419  165.6328 O.2     1  UNL1       -0.2665
     18 N         141.2275  140.1019  165.7087 N.ar    1  UNL1       -0.2626
     19 O         139.3633  138.2320  160.3209 O.3     1  UNL1       -0.4754
     20 C         139.1622  139.2217  159.2118 C.3     1  UNL1        0.2068
     21 C         138.0705  140.2457  159.3092 C.3     1  UNL1        0.0646
     22 C         138.4010  141.7057  159.2129 C.3     1  UNL1        0.0759
     23 N         139.2908  142.3425  160.2388 N.3     1  UNL1       -0.2738
     24 C         140.6515  142.9219  159.9881 C.3     1  UNL1        0.0721
     25 C         141.1779  143.4493  161.2900 C.3     1  UNL1        0.0187
     26 C         140.1424  143.1959  162.3453 C.3     1  UNL1        0.0174
     27 C         138.9761  142.5119  161.6956 C.3     1  UNL1        0.0576
     28 C         137.7164  142.0741  162.3823 C.3     1  UNL1        0.0173
@<TRIPOS>BOND
     1     7     8    1
     2     8     9   ar
     3     9    10   ar
     4    10    11   ar
     5    11    12   ar
     6    12    13   ar
     7    13    14   ar
     8    14    15   ar
     9    15    16   ar
    10    16    17    2
    11    16    18   ar
    12    18     1    1
    13     1     2   ar
    14     2     3   ar
    15     3     4   ar
    16     4    19    1
    17    19    20    1
    18    20    21    1
    19    21    22    1
    20    22    23    1
    21    23    24    1
    22    24    25    1
    23    25    26    1
    24    26    27    1
    25    27    28    1
    26     4     5   ar
    27     5     6   ar
    28    18     8   ar
    29     6     1   ar
    30    15    10   ar
    31    27    23    1
