@<TRIPOS>MOLECULE
*****
 27 30 0 0 0
SMALL
GASTEIGER

@<TRIPOS>ATOM
      1 C         138.5574  139.8831  165.6563 C.ar    1  UNL1        0.0613
      2 C         137.8619  140.7287  164.6309 C.ar    1  UNL1        0.0326
      3 C         138.4135  142.1204  164.7263 C.ar    1  UNL1        0.0980
      4 N         139.4499  142.1348  165.8106 N.ar    1  UNL1       -0.1683
      5 N         139.5389  140.7522  166.3854 N.ar    1  UNL1       -0.2340
      6 C         140.4493  140.3153  167.4944 C.ar    1  UNL1        0.0826
      7 C         141.8580  139.9004  167.1889 C.ar    1  UNL1        0.0214
      8 C         142.7685  139.4635  168.2980 C.ar    1  UNL1        0.0312
      9 C         142.2704  139.4415  169.7126 C.ar    1  UNL1        0.1402
     10 F         143.1809  139.0046  170.8217 F       1  UNL1       -0.2042
     11 C         140.8616  139.8564  170.0183 C.ar    1  UNL1        0.0312
     12 C         139.9511  140.2933  168.9091 C.ar    1  UNL1        0.0214
     13 C         138.9390  137.3947  165.0147 C.3     1  UNL1        0.0063
     14 C         138.3142  138.4246  165.9083 C.3     1  UNL1        0.0404
     15 C         137.4460  137.9960  167.0540 C.3     1  UNL1        0.0063
     16 C         138.0011  143.2918  163.8851 C.3     1  UNL1        0.1434
     17 N         138.6760  143.5452  162.5697 N.3     1  UNL1       -0.1449
     18 C         138.6095  142.6609  161.3599 C.3     1  UNL1        0.1238
     19 C         139.4283  143.2965  160.2756 C.ar    1  UNL1        0.0142
     20 C         139.7264  142.8774  158.8666 C.ar    1  UNL1       -0.0015
     21 C         140.5972  143.7353  157.9973 C.ar    1  UNL1       -0.0002
     22 C         141.1697  145.0124  158.5370 C.ar    1  UNL1        0.0014
     23 C         140.8715  145.4315  159.9460 C.ar    1  UNL1        0.0196
     24 C         140.0008  144.5736  160.8153 C.ar    1  UNL1        0.1196
     25 S         139.5359  144.7272  162.2331 S.O2    1  UNL1        0.0637
     26 O         140.3334  145.9969  162.1912 O.2     1  UNL1       -0.1528
     27 O         139.2376  145.1463  163.6422 O.2     1  UNL1       -0.1528
@<TRIPOS>BOND
     1    13    14    1
     2    14    15    1
     3    14     1    1
     4     1     2   ar
     5     2     3   ar
     6     3    16    1
     7    16    17    1
     8    17    18    1
     9    18    19    1
    10    19    20   ar
    11    20    21   ar
    12    21    22   ar
    13    22    23   ar
    14    23    24   ar
    15    24    25    1
    16    25    26    2
    17    25    27    2
    18     3     4   ar
    19     4     5   ar
    20     5     6    1
    21     6     7   ar
    22     7     8   ar
    23     8     9   ar
    24     9    10    1
    25     9    11   ar
    26    11    12   ar
    27     5     1   ar
    28    12     6   ar
    29    25    17    1
    30    24    19   ar
@<TRIPOS>MOLECULE
*****
 27 30 0 0 0
SMALL
GASTEIGER

@<TRIPOS>ATOM
      1 C         138.7445  139.8375  165.5598 C.ar    1  UNL1        0.0613
      2 C         138.1911  140.6442  164.4226 C.ar    1  UNL1        0.0326
      3 C         138.9482  141.9376  164.3602 C.ar    1  UNL1        0.0980
      4 N         139.9696  141.9303  165.4588 N.ar    1  UNL1       -0.1683
      5 N         139.8436  140.6324  166.2002 N.ar    1  UNL1       -0.2340
      6 C         140.6715  140.2045  167.3755 C.ar    1  UNL1        0.0826
      7 C         140.1041  140.2854  168.7617 C.ar    1  UNL1        0.0214
      8 C         140.9320  139.8575  169.9371 C.ar    1  UNL1        0.0312
      9 C         142.3272  139.3487  169.7263 C.ar    1  UNL1        0.1402
     10 F         143.1551  138.9208  170.9017 F       1  UNL1       -0.2042
     11 C         142.8947  139.2678  168.3401 C.ar    1  UNL1        0.0312
     12 C         142.0667  139.6958  167.1647 C.ar    1  UNL1        0.0214
     13 C         138.7228  137.2620  165.2194 C.3     1  UNL1        0.0063
     14 C         138.2802  138.4752  165.9824 C.3     1  UNL1        0.0404
     15 C         137.3735  138.3262  167.1679 C.3     1  UNL1        0.0063
     16 C         138.7235  143.0440  163.3726 C.3     1  UNL1        0.1434
     17 N         139.5578  143.1196  162.1284 N.3     1  UNL1       -0.1449
     18 C         141.0512  143.2492  162.0747 C.3     1  UNL1        0.1238
     19 C         141.4616  143.2886  160.6324 C.ar    1  UNL1        0.0142
     20 C         142.8040  143.4067  159.9737 C.ar    1  UNL1       -0.0015
     21 C         142.9066  143.4196  158.4773 C.ar    1  UNL1       -0.0002
     22 C         141.6667  143.3144  157.6396 C.ar    1  UNL1        0.0014
     23 C         140.3243  143.1963  158.2983 C.ar    1  UNL1        0.0196
     24 C         140.2218  143.1834  159.7947 C.ar    1  UNL1        0.1196
     25 S         139.0452  143.0790  160.7193 S.O2    1  UNL1        0.0637
     26 O         138.2519  143.0136  159.4479 O.2     1  UNL1       -0.1528
     27 O         137.7027  142.9609  161.3780 O.2     1  UNL1       -0.1528
@<TRIPOS>BOND
     1    13    14    1
     2    14    15    1
     3    14     1    1
     4     1     2   ar
     5     2     3   ar
     6     3    16    1
     7    16    17    1
     8    17    18    1
     9    18    19    1
    10    19    20   ar
    11    20    21   ar
    12    21    22   ar
    13    22    23   ar
    14    23    24   ar
    15    24    25    1
    16    25    26    2
    17    25    27    2
    18     3     4   ar
    19     4     5   ar
    20     5     6    1
    21     6     7   ar
    22     7     8   ar
    23     8     9   ar
    24     9    10    1
    25     9    11   ar
    26    11    12   ar
    27     5     1   ar
    28    12     6   ar
    29    25    17    1
    30    24    19   ar
@<TRIPOS>MOLECULE
*****
 27 30 0 0 0
SMALL
GASTEIGER

@<TRIPOS>ATOM
      1 C         140.1481  139.7699  165.3759 C.ar    1  UNL1        0.0613
      2 C         140.9830  139.1811  164.2774 C.ar    1  UNL1        0.0326
      3 C         142.4245  139.4400  164.6012 C.ar    1  UNL1        0.0980
      4 N         142.4807  140.1888  165.8997 N.ar    1  UNL1       -0.1683
      5 N         141.0739  140.3927  166.3785 N.ar    1  UNL1       -0.2340
      6 C         140.6646  141.0958  167.6386 C.ar    1  UNL1        0.0826
      7 C         140.1193  140.3090  168.7933 C.ar    1  UNL1        0.0214
      8 C         139.7100  141.0122  170.0535 C.ar    1  UNL1        0.0312
      9 C         139.8460  142.5023  170.1589 C.ar    1  UNL1        0.1402
     10 F         139.4367  143.2055  171.4191 F       1  UNL1       -0.2042
     11 C         140.3913  143.2892  169.0042 C.ar    1  UNL1        0.0312
     12 C         140.8006  142.5859  167.7441 C.ar    1  UNL1        0.0214
     13 C         137.9668  138.7393  166.3399 C.3     1  UNL1        0.0063
     14 C         138.6507  139.7409  165.4574 C.3     1  UNL1        0.0404
     15 C         137.8370  140.7136  164.6563 C.3     1  UNL1        0.0063
     16 C         143.6030  139.0233  163.7720 C.3     1  UNL1        0.1434
     17 N         143.5143  139.0515  162.2749 N.3     1  UNL1       -0.1449
     18 C         142.9705  137.9587  161.4031 C.3     1  UNL1        0.1238
     19 C         143.0739  138.4092  159.9761 C.ar    1  UNL1        0.0142
     20 C         142.6932  137.7480  158.6847 C.ar    1  UNL1       -0.0015
     21 C         142.9202  138.4581  157.3831 C.ar    1  UNL1       -0.0002
     22 C         143.5278  139.8295  157.3730 C.ar    1  UNL1        0.0014
     23 C         143.9085  140.4907  158.6644 C.ar    1  UNL1        0.0196
     24 C         143.6815  139.7806  159.9659 C.ar    1  UNL1        0.1196
     25 S         143.9537  140.1775  161.3867 S.O2    1  UNL1        0.0637
     26 O         144.4727  141.4418  160.7684 O.2     1  UNL1       -0.1528
     27 O         144.3344  140.8388  162.6782 O.2     1  UNL1       -0.1528
@<TRIPOS>BOND
     1    13    14    1
     2    14    15    1
     3    14     1    1
     4     1     2   ar
     5     2     3   ar
     6     3    16    1
     7    16    17    1
     8    17    18    1
     9    18    19    1
    10    19    20   ar
    11    20    21   ar
    12    21    22   ar
    13    22    23   ar
    14    23    24   ar
    15    24    25    1
    16    25    26    2
    17    25    27    2
    18     3     4   ar
    19     4     5   ar
    20     5     6    1
    21     6     7   ar
    22     7     8   ar
    23     8     9   ar
    24     9    10    1
    25     9    11   ar
    26    11    12   ar
    27     5     1   ar
    28    12     6   ar
    29    25    17    1
    30    24    19   ar
@<TRIPOS>MOLECULE
*****
 27 30 0 0 0
SMALL
GASTEIGER

@<TRIPOS>ATOM
      1 C         141.8765  141.6717  165.7258 C.ar    1  UNL1        0.0613
      2 C         142.2793  142.9953  165.1462 C.ar    1  UNL1        0.0326
      3 C         141.1655  143.4724  164.2619 C.ar    1  UNL1        0.0980
      4 N         140.0743  142.4436  164.2950 N.ar    1  UNL1       -0.1683
      5 N         140.5137  141.3308  165.1997 N.ar    1  UNL1       -0.2340
      6 C         139.7283  140.0942  165.5218 C.ar    1  UNL1        0.0826
      7 C         138.8865  140.0422  166.7622 C.ar    1  UNL1        0.0214
      8 C         138.1010  138.8055  167.0843 C.ar    1  UNL1        0.0312
      9 C         138.1574  137.6208  166.1660 C.ar    1  UNL1        0.1402
     10 F         137.3719  136.3841  166.4881 F       1  UNL1       -0.2042
     11 C         138.9993  137.6727  164.9255 C.ar    1  UNL1        0.0312
     12 C         139.7847  138.9094  164.6035 C.ar    1  UNL1        0.0214
     13 C         143.3007  139.5493  166.1915 C.3     1  UNL1        0.0063
     14 C         142.6930  140.8358  166.6663 C.3     1  UNL1        0.0404
     15 C         142.9019  141.2865  168.0816 C.3     1  UNL1        0.0063
     16 C         141.1463  144.7532  163.4815 C.3     1  UNL1        0.1434
     17 N         141.2630  144.7224  161.9864 N.3     1  UNL1       -0.1449
     18 C         142.2542  143.9209  161.1957 C.3     1  UNL1        0.1238
     19 C         142.0128  144.1908  159.7401 C.ar    1  UNL1        0.0142
     20 C         142.6841  143.6800  158.4998 C.ar    1  UNL1       -0.0015
     21 C         142.2150  144.1375  157.1505 C.ar    1  UNL1       -0.0002
     22 C         141.0747  145.1059  157.0415 C.ar    1  UNL1        0.0014
     23 C         140.4034  145.6168  158.2818 C.ar    1  UNL1        0.0196
     24 C         140.8725  145.1592  159.6311 C.ar    1  UNL1        0.1196
     25 S         140.4091  145.4878  161.0194 S.O2    1  UNL1        0.0637
     26 O         139.4149  146.3599  160.3117 O.2     1  UNL1       -0.1528
     27 O         139.7379  145.9986  162.2598 O.2     1  UNL1       -0.1528
@<TRIPOS>BOND
     1    13    14    1
     2    14    15    1
     3    14     1    1
     4     1     2   ar
     5     2     3   ar
     6     3    16    1
     7    16    17    1
     8    17    18    1
     9    18    19    1
    10    19    20   ar
    11    20    21   ar
    12    21    22   ar
    13    22    23   ar
    14    23    24   ar
    15    24    25    1
    16    25    26    2
    17    25    27    2
    18     3     4   ar
    19     4     5   ar
    20     5     6    1
    21     6     7   ar
    22     7     8   ar
    23     8     9   ar
    24     9    10    1
    25     9    11   ar
    26    11    12   ar
    27     5     1   ar
    28    12     6   ar
    29    25    17    1
    30    24    19   ar
@<TRIPOS>MOLECULE
*****
 27 30 0 0 0
SMALL
GASTEIGER

@<TRIPOS>ATOM
      1 C         140.8789  138.7061  160.2498 C.ar    1  UNL1        0.0613
      2 C         141.0290  138.4212  158.7847 C.ar    1  UNL1        0.0326
      3 C         142.3302  137.7026  158.5831 C.ar    1  UNL1        0.0980
      4 N         142.9843  137.5434  159.9236 N.ar    1  UNL1       -0.1683
      5 N         142.0874  138.1635  160.9537 N.ar    1  UNL1       -0.2340
      6 C         142.3523  138.2295  162.4285 C.ar    1  UNL1        0.0826
      7 C         143.5394  138.9879  162.9441 C.ar    1  UNL1        0.0214
      8 C         143.8043  139.0539  164.4190 C.ar    1  UNL1        0.0312
      9 C         142.8823  138.3616  165.3784 C.ar    1  UNL1        0.1402
     10 F         143.1472  138.4276  166.8534 F       1  UNL1       -0.2042
     11 C         141.6951  137.6032  164.8629 C.ar    1  UNL1        0.0312
     12 C         141.4302  137.5372  163.3879 C.ar    1  UNL1        0.0214
     13 C         138.4750  138.6494  161.2334 C.3     1  UNL1        0.0063
     14 C         139.7233  139.4099  160.8973 C.3     1  UNL1        0.0404
     15 C         139.8162  140.8743  161.2086 C.3     1  UNL1        0.0063
     16 C         142.8806  137.2268  157.2714 C.3     1  UNL1        0.1434
     17 N         142.6971  135.7975  156.8552 N.3     1  UNL1       -0.1449
     18 C         143.3414  134.6033  157.4946 C.3     1  UNL1        0.1238
     19 C         142.8795  133.3791  156.7610 C.ar    1  UNL1        0.0142
     20 C         143.1854  131.9224  156.9470 C.ar    1  UNL1       -0.0015
     21 C         142.5616  130.9034  156.0402 C.ar    1  UNL1       -0.0002
     22 C         141.6318  131.3410  154.9474 C.ar    1  UNL1        0.0014
     23 C         141.3259  132.7976  154.7615 C.ar    1  UNL1        0.0196
     24 C         141.9497  133.8167  155.6683 C.ar    1  UNL1        0.1196
     25 S         141.8370  135.3113  155.7265 S.O2    1  UNL1        0.0637
     26 O         140.9130  135.1297  154.5590 O.2     1  UNL1       -0.1528
     27 O         141.5311  136.7680  155.5406 O.2     1  UNL1       -0.1528
@<TRIPOS>BOND
     1    13    14    1
     2    14    15    1
     3    14     1    1
     4     1     2   ar
     5     2     3   ar
     6     3    16    1
     7    16    17    1
     8    17    18    1
     9    18    19    1
    10    19    20   ar
    11    20    21   ar
    12    21    22   ar
    13    22    23   ar
    14    23    24   ar
    15    24    25    1
    16    25    26    2
    17    25    27    2
    18     3     4   ar
    19     4     5   ar
    20     5     6    1
    21     6     7   ar
    22     7     8   ar
    23     8     9   ar
    24     9    10    1
    25     9    11   ar
    26    11    12   ar
    27     5     1   ar
    28    12     6   ar
    29    25    17    1
    30    24    19   ar
@<TRIPOS>MOLECULE
*****
 27 30 0 0 0
SMALL
GASTEIGER

@<TRIPOS>ATOM
      1 C         141.4068  139.7057  164.6349 C.ar    1  UNL1        0.0613
      2 C         142.0697  140.2790  163.4173 C.ar    1  UNL1        0.0326
      3 C         142.8641  141.4779  163.8432 C.ar    1  UNL1        0.0980
      4 N         142.6923  141.6457  165.3239 N.ar    1  UNL1       -0.1683
      5 N         141.7916  140.5505  165.8132 N.ar    1  UNL1       -0.2340
      6 C         141.3529  140.3374  167.2316 C.ar    1  UNL1        0.0826
      7 C         139.9735  140.7431  167.6589 C.ar    1  UNL1        0.0214
      8 C         139.5347  140.5300  169.0774 C.ar    1  UNL1        0.0312
      9 C         140.4754  139.9112  170.0686 C.ar    1  UNL1        0.1402
     10 F         140.0366  139.6982  171.4870 F       1  UNL1       -0.2042
     11 C         141.8549  139.5056  169.6412 C.ar    1  UNL1        0.0312
     12 C         142.2935  139.7187  168.2227 C.ar    1  UNL1        0.0214
     13 C         139.0300  138.6679  164.7878 C.3     1  UNL1        0.0063
     14 C         140.5157  138.4996  164.6682 C.3     1  UNL1        0.0404
     15 C         141.1103  137.1252  164.5818 C.3     1  UNL1        0.0063
     16 C         143.6860  142.3551  162.9460 C.3     1  UNL1        0.1434
     17 N         143.0487  143.0292  161.7673 N.3     1  UNL1       -0.1449
     18 C         141.8514  143.9319  161.8089 C.3     1  UNL1        0.1238
     19 C         141.5595  144.3796  160.4074 C.ar    1  UNL1        0.0142
     20 C         140.4991  145.2764  159.8405 C.ar    1  UNL1       -0.0015
     21 C         140.4556  145.5472  158.3659 C.ar    1  UNL1       -0.0002
     22 C         141.4724  144.9212  157.4580 C.ar    1  UNL1        0.0014
     23 C         142.5328  144.0245  158.0249 C.ar    1  UNL1        0.0196
     24 C         142.5763  143.7536  159.4995 C.ar    1  UNL1        0.1196
     25 S         143.4967  142.9191  160.3400 S.O2    1  UNL1        0.0637
     26 O         144.1664  142.6214  159.0313 O.2     1  UNL1       -0.1528
     27 O         144.5571  142.0222  160.9069 O.2     1  UNL1       -0.1528
@<TRIPOS>BOND
     1    13    14    1
     2    14    15    1
     3    14     1    1
     4     1     2   ar
     5     2     3   ar
     6     3    16    1
     7    16    17    1
     8    17    18    1
     9    18    19    1
    10    19    20   ar
    11    20    21   ar
    12    21    22   ar
    13    22    23   ar
    14    23    24   ar
    15    24    25    1
    16    25    26    2
    17    25    27    2
    18     3     4   ar
    19     4     5   ar
    20     5     6    1
    21     6     7   ar
    22     7     8   ar
    23     8     9   ar
    24     9    10    1
    25     9    11   ar
    26    11    12   ar
    27     5     1   ar
    28    12     6   ar
    29    25    17    1
    30    24    19   ar
@<TRIPOS>MOLECULE
*****
 27 30 0 0 0
SMALL
GASTEIGER

@<TRIPOS>ATOM
      1 C         142.3151  141.4853  166.7754 C.ar    1  UNL1        0.0613
      2 C         143.2305  142.5054  166.1657 C.ar    1  UNL1        0.0326
      3 C         142.9640  142.5440  164.6900 C.ar    1  UNL1        0.0980
      4 N         141.8840  141.5478  164.3878 N.ar    1  UNL1       -0.1683
      5 N         141.4830  140.8935  165.6766 N.ar    1  UNL1       -0.2340
      6 C         140.4340  139.8336  165.8382 C.ar    1  UNL1        0.0826
      7 C         140.5115  138.5723  165.0301 C.ar    1  UNL1        0.0214
      8 C         139.4625  137.5124  165.1917 C.ar    1  UNL1        0.0312
      9 C         138.3360  137.7137  166.1615 C.ar    1  UNL1        0.1402
     10 F         137.2870  136.6537  166.3232 F       1  UNL1       -0.2042
     11 C         138.2585  138.9750  166.9698 C.ar    1  UNL1        0.0312
     12 C         139.3076  140.0349  166.8080 C.ar    1  UNL1        0.0214
     13 C         142.6510  139.7492  168.6788 C.3     1  UNL1        0.0063
     14 C         142.2444  141.1210  168.2288 C.3     1  UNL1        0.0404
     15 C         141.7670  142.1287  169.2322 C.3     1  UNL1        0.0063
     16 C         143.6560  143.4242  163.6919 C.3     1  UNL1        0.1434
     17 N         142.9961  143.7348  162.3811 N.3     1  UNL1       -0.1449
     18 C         141.7747  144.5840  162.1883 C.3     1  UNL1        0.1238
     19 C         141.4654  144.6248  160.7211 C.ar    1  UNL1        0.0142
     20 C         140.3788  145.3058  159.9431 C.ar    1  UNL1       -0.0015
     21 C         140.3224  145.1629  158.4510 C.ar    1  UNL1       -0.0002
     22 C         141.3526  144.3389  157.7370 C.ar    1  UNL1        0.0014
     23 C         142.4392  143.6579  158.5151 C.ar    1  UNL1        0.0196
     24 C         142.4956  143.8009  160.0071 C.ar    1  UNL1        0.1196
     25 S         143.4416  143.2508  161.0331 S.O2    1  UNL1        0.0637
     26 O         144.1143  142.6245  159.8477 O.2     1  UNL1       -0.1528
     27 O         144.5283  142.5698  161.8112 O.2     1  UNL1       -0.1528
@<TRIPOS>BOND
     1    13    14    1
     2    14    15    1
     3    14     1    1
     4     1     2   ar
     5     2     3   ar
     6     3    16    1
     7    16    17    1
     8    17    18    1
     9    18    19    1
    10    19    20   ar
    11    20    21   ar
    12    21    22   ar
    13    22    23   ar
    14    23    24   ar
    15    24    25    1
    16    25    26    2
    17    25    27    2
    18     3     4   ar
    19     4     5   ar
    20     5     6    1
    21     6     7   ar
    22     7     8   ar
    23     8     9   ar
    24     9    10    1
    25     9    11   ar
    26    11    12   ar
    27     5     1   ar
    28    12     6   ar
    29    25    17    1
    30    24    19   ar
@<TRIPOS>MOLECULE
*****
 27 30 0 0 0
SMALL
GASTEIGER

@<TRIPOS>ATOM
      1 C         140.4485  138.6453  162.4766 C.ar    1  UNL1        0.0613
      2 C         139.9594  138.2611  161.1115 C.ar    1  UNL1        0.0326
      3 C         140.4377  139.2981  160.1389 C.ar    1  UNL1        0.0980
      4 N         141.2224  140.3232  160.9029 N.ar    1  UNL1       -0.1683
      5 N         141.2290  139.9198  162.3476 N.ar    1  UNL1       -0.2340
      6 C         141.8986  140.6606  163.4668 C.ar    1  UNL1        0.0826
      7 C         143.3631  140.4649  163.7253 C.ar    1  UNL1        0.0214
      8 C         144.0328  141.2058  164.8446 C.ar    1  UNL1        0.0312
      9 C         143.2378  142.1424  165.7053 C.ar    1  UNL1        0.1402
     10 F         143.9075  142.8834  166.8245 F       1  UNL1       -0.2042
     11 C         141.7732  142.3382  165.4468 C.ar    1  UNL1        0.0312
     12 C         141.1037  141.5972  164.3275 C.ar    1  UNL1        0.0214
     13 C         141.3000  137.0734  164.3618 C.3     1  UNL1        0.0063
     14 C         140.2005  137.8880  163.7474 C.3     1  UNL1        0.0404
     15 C         138.8530  137.9454  164.4039 C.3     1  UNL1        0.0063
     16 C         140.1771  139.3082  158.6618 C.3     1  UNL1        0.1434
     17 N         140.7844  138.2529  157.7858 N.3     1  UNL1       -0.1449
     18 C         142.1697  137.6917  157.9125 C.3     1  UNL1        0.1238
     19 C         142.3545  136.6654  156.8343 C.ar    1  UNL1        0.0142
     20 C         143.5160  135.7880  156.4722 C.ar    1  UNL1       -0.0015
     21 C         143.4064  134.8374  155.3171 C.ar    1  UNL1       -0.0002
     22 C         142.1353  134.7643  154.5240 C.ar    1  UNL1        0.0014
     23 C         140.9738  135.6416  154.8861 C.ar    1  UNL1        0.0196
     24 C         141.0834  136.5922  156.0413 C.ar    1  UNL1        0.1196
     25 S         140.1131  137.5733  156.6293 S.O2    1  UNL1        0.0637
     26 O         139.1989  137.0772  155.5486 O.2     1  UNL1       -0.1528
     27 O         138.9516  138.4507  156.9915 O.2     1  UNL1       -0.1528
@<TRIPOS>BOND
     1    13    14    1
     2    14    15    1
     3    14     1    1
     4     1     2   ar
     5     2     3   ar
     6     3    16    1
     7    16    17    1
     8    17    18    1
     9    18    19    1
    10    19    20   ar
    11    20    21   ar
    12    21    22   ar
    13    22    23   ar
    14    23    24   ar
    15    24    25    1
    16    25    26    2
    17    25    27    2
    18     3     4   ar
    19     4     5   ar
    20     5     6    1
    21     6     7   ar
    22     7     8   ar
    23     8     9   ar
    24     9    10    1
    25     9    11   ar
    26    11    12   ar
    27     5     1   ar
    28    12     6   ar
    29    25    17    1
    30    24    19   ar
@<TRIPOS>MOLECULE
*****
 27 30 0 0 0
SMALL
GASTEIGER

@<TRIPOS>ATOM
      1 C         140.4813  140.2329  165.0989 C.ar    1  UNL1        0.0613
      2 C         141.1978  139.7806  163.8611 C.ar    1  UNL1        0.0326
      3 C         142.6677  139.7562  164.1591 C.ar    1  UNL1        0.0980
      4 N         142.8596  140.1934  165.5812 N.ar    1  UNL1       -0.1683
      5 N         141.5084  140.4880  166.1620 N.ar    1  UNL1       -0.2340
      6 C         141.2327  140.9555  167.5602 C.ar    1  UNL1        0.0826
      7 C         141.3296  139.9923  168.7060 C.ar    1  UNL1        0.0214
      8 C         141.0538  140.4599  170.1043 C.ar    1  UNL1        0.0312
      9 C         140.6812  141.8907  170.3569 C.ar    1  UNL1        0.1402
     10 F         140.4054  142.3583  171.7552 F       1  UNL1       -0.2042
     11 C         140.5843  142.8541  169.2111 C.ar    1  UNL1        0.0312
     12 C         140.8600  142.3864  167.8128 C.ar    1  UNL1        0.0214
     13 C         138.1873  139.3365  165.9258 C.3     1  UNL1        0.0063
     14 C         138.9981  140.4006  165.2476 C.3     1  UNL1        0.0404
     15 C         138.3259  141.6325  164.7179 C.3     1  UNL1        0.0063
     16 C         143.7548  139.3635  163.2030 C.3     1  UNL1        0.1434
     17 N         143.7943  139.9588  161.8268 N.3     1  UNL1       -0.1449
     18 C         143.9857  141.4100  161.4990 C.3     1  UNL1        0.1238
     19 C         143.9591  141.5556  160.0063 C.ar    1  UNL1        0.0142
     20 C         144.0973  142.7517  159.1119 C.ar    1  UNL1       -0.0015
     21 C         144.0275  142.5866  157.6227 C.ar    1  UNL1       -0.0002
     22 C         143.8196  141.2254  157.0279 C.ar    1  UNL1        0.0014
     23 C         143.6815  140.0292  157.9223 C.ar    1  UNL1        0.0196
     24 C         143.7512  140.1943  159.4115 C.ar    1  UNL1        0.1196
     25 S         143.6493  139.2075  160.5367 S.O2    1  UNL1        0.0637
     26 O         143.4755  138.2061  159.4335 O.2     1  UNL1       -0.1528
     27 O         143.5112  138.0113  161.4312 O.2     1  UNL1       -0.1528
@<TRIPOS>BOND
     1    13    14    1
     2    14    15    1
     3    14     1    1
     4     1     2   ar
     5     2     3   ar
     6     3    16    1
     7    16    17    1
     8    17    18    1
     9    18    19    1
    10    19    20   ar
    11    20    21   ar
    12    21    22   ar
    13    22    23   ar
    14    23    24   ar
    15    24    25    1
    16    25    26    2
    17    25    27    2
    18     3     4   ar
    19     4     5   ar
    20     5     6    1
    21     6     7   ar
    22     7     8   ar
    23     8     9   ar
    24     9    10    1
    25     9    11   ar
    26    11    12   ar
    27     5     1   ar
    28    12     6   ar
    29    25    17    1
    30    24    19   ar
