@<TRIPOS>MOLECULE
*****
 32 35 0 0 0
SMALL
GASTEIGER

@<TRIPOS>ATOM
      1 C         141.0446  143.0405  157.6982 C.ar    1  UNL1        0.0468
      2 C         141.0021  143.7667  156.3865 C.ar    1  UNL1        0.0144
      3 C         140.5890  145.2079  156.3402 C.ar    1  UNL1        0.0044
      4 C         140.2184  145.9229  157.6057 C.ar    1  UNL1        0.0367
      5 C         140.2609  145.1967  158.9175 C.ar    1  UNL1        0.1358
      6 C         140.6740  143.7554  158.9637 C.ar    1  UNL1        0.0268
      7 C         140.7164  143.0291  160.2755 C.3     1  UNL1        0.0541
      8 C         140.3458  143.7441  161.5410 C.3     1  UNL1        0.1200
      9 C         139.9327  145.1854  161.4947 C.3     1  UNL1        0.2250
     10 O         139.8902  145.9116  160.1829 O.3     1  UNL1       -0.4739
     11 C         142.6969  137.2754  157.8834 C.3     1  UNL1        0.0897
     12 N         142.2839  138.7166  157.8371 N.3     1  UNL1       -0.2686
     13 C         143.3155  139.7972  157.9718 C.3     1  UNL1        0.0938
     14 C         142.9024  141.2385  157.9255 C.3     1  UNL1        0.1081
     15 N         141.4577  141.5992  157.7445 N.pl3   1  UNL1       -0.3048
     16 C         140.4261  140.5186  157.6098 C.3     1  UNL1        0.1081
     17 C         140.8391  139.0774  157.6561 C.3     1  UNL1        0.0938
     18 N         140.3883  143.0178  162.8527 N.am    1  UNL1       -0.2986
     19 C         139.1411  142.3940  163.4053 C.2     1  UNL1        0.2459
     20 O         137.8515  142.4964  162.6462 O.2     1  UNL1       -0.2701
     21 H         141.2347  142.9506  163.3510 H       1  UNL1        0.1498
     22 C         139.1836  141.6677  164.7172 C.ar    1  UNL1        0.0536
     23 C         138.3886  140.4095  164.9039 C.ar    1  UNL1        0.0076
     24 C         138.4311  139.6832  166.2156 C.ar    1  UNL1        0.0373
     25 C         139.2686  140.2151  167.3406 C.ar    1  UNL1        0.1468
     26 C         140.0636  141.4733  167.1539 C.ar    1  UNL1        0.0373
     27 C         140.0211  142.1996  165.8421 C.ar    1  UNL1        0.0076
     28 O         139.3111  139.4888  168.6524 O.3     1  UNL1       -0.4045
     29 C         139.8940  140.1581  169.8617 C.3     1  UNL1        0.5753
     30 F         140.4769  140.8274  171.0709 F       1  UNL1       -0.1328
     31 F         141.1858  139.4278  169.6431 F       1  UNL1       -0.1328
     32 F         138.6022  140.8885  170.0802 F       1  UNL1       -0.1328
@<TRIPOS>BOND
     1    11    12    1
     2    12    13    1
     3    13    14    1
     4    14    15    1
     5    15     1    1
     6     1     2   ar
     7     2     3   ar
     8     3     4   ar
     9     4     5   ar
    10     5     6   ar
    11     6     7    1
    12     7     8    1
    13     8    18    1
    14    18    19   am
    15    19    20    2
    16    19    22    1
    17    22    23   ar
    18    23    24   ar
    19    24    25   ar
    20    25    28    1
    21    28    29    1
    22    29    30    1
    23    29    31    1
    24    29    32    1
    25    25    26   ar
    26    26    27   ar
    27     8     9    1
    28     9    10    1
    29    15    16    1
    30    16    17    1
    31    17    12    1
    32     6     1   ar
    33    27    22   ar
    34    10     5    1
    35    18    21    1
@<TRIPOS>MOLECULE
*****
 32 35 0 0 0
SMALL
GASTEIGER

@<TRIPOS>ATOM
      1 C         139.7812  142.2734  164.3254 C.ar    1  UNL1        0.0468
      2 C         139.3498  143.4371  165.1679 C.ar    1  UNL1        0.0144
      3 C         138.3690  144.4334  164.6247 C.ar    1  UNL1        0.0044
      4 C         137.8195  144.2662  163.2390 C.ar    1  UNL1        0.0367
      5 C         138.2509  143.1025  162.3965 C.ar    1  UNL1        0.1358
      6 C         139.2317  142.1061  162.9398 C.ar    1  UNL1        0.0268
      7 C         139.6631  140.9424  162.0973 C.3     1  UNL1        0.0541
      8 C         139.1137  140.7751  160.7116 C.3     1  UNL1        0.1200
      9 C         138.1328  141.7716  160.1684 C.3     1  UNL1        0.2250
     10 O         137.7014  142.9353  161.0109 O.3     1  UNL1       -0.4739
     11 C         143.7047  138.2877  166.4982 C.3     1  UNL1        0.0897
     12 N         142.7238  139.2841  165.9550 N.3     1  UNL1       -0.2686
     13 C         141.2545  139.0951  166.1905 C.3     1  UNL1        0.0938
     14 C         140.2736  140.0916  165.6473 C.3     1  UNL1        0.1081
     15 N         140.7621  141.2769  164.8686 N.pl3   1  UNL1       -0.3048
     16 C         142.2314  141.4659  164.6331 C.3     1  UNL1        0.1081
     17 C         143.2122  140.4695  165.1763 C.3     1  UNL1        0.0938
     18 N         139.5450  139.6115  159.8691 N.am    1  UNL1       -0.2986
     19 C         140.6297  139.7861  158.8479 C.2     1  UNL1        0.2459
     20 O         141.2830  141.1245  158.6691 O.2     1  UNL1       -0.2701
     21 H         139.1162  138.7331  159.9865 H       1  UNL1        0.1498
     22 C         141.0611  138.6224  158.0054 C.ar    1  UNL1        0.0536
     23 C         142.4180  138.0147  158.2042 C.ar    1  UNL1        0.0076
     24 C         142.8494  136.8510  157.3618 C.ar    1  UNL1        0.0373
     25 C         141.9238  136.2950  156.3206 C.ar    1  UNL1        0.1468
     26 C         140.5669  136.9027  156.1218 C.ar    1  UNL1        0.0373
     27 C         140.1355  138.0664  156.9642 C.ar    1  UNL1        0.0076
     28 O         142.3552  135.1313  155.4781 O.3     1  UNL1       -0.4045
     29 C         142.3832  133.7508  156.0641 C.3     1  UNL1        0.5753
     30 F         142.4112  132.3702  156.6500 F       1  UNL1       -0.1328
     31 F         143.8075  133.9588  156.4861 F       1  UNL1       -0.1328
     32 F         140.9589  133.5427  155.6421 F       1  UNL1       -0.1328
@<TRIPOS>BOND
     1    11    12    1
     2    12    13    1
     3    13    14    1
     4    14    15    1
     5    15     1    1
     6     1     2   ar
     7     2     3   ar
     8     3     4   ar
     9     4     5   ar
    10     5     6   ar
    11     6     7    1
    12     7     8    1
    13     8    18    1
    14    18    19   am
    15    19    20    2
    16    19    22    1
    17    22    23   ar
    18    23    24   ar
    19    24    25   ar
    20    25    28    1
    21    28    29    1
    22    29    30    1
    23    29    31    1
    24    29    32    1
    25    25    26   ar
    26    26    27   ar
    27     8     9    1
    28     9    10    1
    29    15    16    1
    30    16    17    1
    31    17    12    1
    32     6     1   ar
    33    27    22   ar
    34    10     5    1
    35    18    21    1
@<TRIPOS>MOLECULE
*****
 32 35 0 0 0
SMALL
GASTEIGER

@<TRIPOS>ATOM
      1 C         141.0947  143.0171  158.3877 C.ar    1  UNL1        0.0468
      2 C         141.0630  143.5589  156.9893 C.ar    1  UNL1        0.0144
      3 C         140.6079  144.9663  156.7405 C.ar    1  UNL1        0.0044
      4 C         140.1845  145.8320  157.8900 C.ar    1  UNL1        0.0367
      5 C         140.2162  145.2902  159.2884 C.ar    1  UNL1        0.1358
      6 C         140.6713  143.8828  159.5372 C.ar    1  UNL1        0.0268
      7 C         140.7030  143.3409  160.9356 C.3     1  UNL1        0.0541
      8 C         140.2796  144.2065  162.0851 C.3     1  UNL1        0.1200
      9 C         139.8245  145.6140  161.8362 C.3     1  UNL1        0.2250
     10 O         139.7928  146.1558  160.4379 O.3     1  UNL1       -0.4739
     11 C         142.9154  137.3873  159.3832 C.3     1  UNL1        0.0897
     12 N         142.4602  138.7947  159.1343 N.3     1  UNL1       -0.2686
     13 C         141.0093  139.0803  158.8824 C.3     1  UNL1        0.0938
     14 C         140.5542  140.4878  158.6335 C.3     1  UNL1        0.1081
     15 N         141.5499  141.6096  158.6366 N.pl3   1  UNL1       -0.3048
     16 C         143.0007  141.3240  158.8885 C.3     1  UNL1        0.1081
     17 C         143.4559  139.9166  159.1374 C.3     1  UNL1        0.0938
     18 N         140.3113  143.6647  163.4835 N.am    1  UNL1       -0.2986
     19 C         141.6238  143.4735  164.1841 C.2     1  UNL1        0.2459
     20 O         142.9045  143.8240  163.4864 O.2     1  UNL1       -0.2701
     21 H         139.4707  143.4347  163.9414 H       1  UNL1        0.1498
     22 C         141.6554  142.9316  165.5825 C.ar    1  UNL1        0.0536
     23 C         140.3865  142.8281  166.3756 C.ar    1  UNL1        0.0076
     24 C         140.4181  142.2863  167.7740 C.ar    1  UNL1        0.0373
     25 C         141.7187  141.8481  168.3792 C.ar    1  UNL1        0.1468
     26 C         142.9876  141.9516  167.5861 C.ar    1  UNL1        0.0373
     27 C         142.9560  142.4934  166.1878 C.ar    1  UNL1        0.0076
     28 O         141.7503  141.3062  169.7776 O.3     1  UNL1       -0.4045
     29 C         142.1262  139.8743  170.0188 C.3     1  UNL1        0.5753
     30 F         142.5022  138.4423  170.2599 F       1  UNL1       -0.1328
     31 F         143.4920  140.3076  170.4626 F       1  UNL1       -0.1328
     32 F         140.7605  139.4410  169.5750 F       1  UNL1       -0.1328
@<TRIPOS>BOND
     1    11    12    1
     2    12    13    1
     3    13    14    1
     4    14    15    1
     5    15     1    1
     6     1     2   ar
     7     2     3   ar
     8     3     4   ar
     9     4     5   ar
    10     5     6   ar
    11     6     7    1
    12     7     8    1
    13     8    18    1
    14    18    19   am
    15    19    20    2
    16    19    22    1
    17    22    23   ar
    18    23    24   ar
    19    24    25   ar
    20    25    28    1
    21    28    29    1
    22    29    30    1
    23    29    31    1
    24    29    32    1
    25    25    26   ar
    26    26    27   ar
    27     8     9    1
    28     9    10    1
    29    15    16    1
    30    16    17    1
    31    17    12    1
    32     6     1   ar
    33    27    22   ar
    34    10     5    1
    35    18    21    1
@<TRIPOS>MOLECULE
*****
 32 35 0 0 0
SMALL
GASTEIGER

@<TRIPOS>ATOM
      1 C         140.6743  142.4733  165.8692 C.ar    1  UNL1        0.0468
      2 C         140.4720  142.8399  167.3095 C.ar    1  UNL1        0.0144
      3 C         140.7556  141.8348  168.3862 C.ar    1  UNL1        0.0044
      4 C         141.2415  140.4631  168.0225 C.ar    1  UNL1        0.0367
      5 C         141.4439  140.0965  166.5822 C.ar    1  UNL1        0.1358
      6 C         141.1603  141.1016  165.5055 C.ar    1  UNL1        0.0268
      7 C         141.3626  140.7350  164.0651 C.3     1  UNL1        0.0541
      8 C         141.8485  139.3633  163.7014 C.3     1  UNL1        0.1200
      9 C         142.1322  138.3581  164.7782 C.3     1  UNL1        0.2250
     10 O         141.9298  138.7248  166.2185 O.3     1  UNL1       -0.4739
     11 C         139.5399  146.4937  161.5622 C.3     1  UNL1        0.0897
     12 N         139.8235  145.4886  162.6389 N.3     1  UNL1       -0.2686
     13 C         138.7067  144.6662  163.2101 C.3     1  UNL1        0.0938
     14 C         138.9903  143.6611  164.2869 C.3     1  UNL1        0.1081
     15 N         140.3907  143.4784  164.7924 N.pl3   1  UNL1       -0.3048
     16 C         141.5075  144.3009  164.2211 C.3     1  UNL1        0.1081
     17 C         141.2239  145.3059  163.1444 C.3     1  UNL1        0.0938
     18 N         142.0509  138.9967  162.2611 N.am    1  UNL1       -0.2986
     19 C         140.8649  138.7680  161.3716 C.2     1  UNL1        0.2459
     20 O         139.4766  138.9060  161.9225 O.2     1  UNL1       -0.2701
     21 H         142.9621  138.9061  161.8995 H       1  UNL1        0.1498
     22 C         141.0673  138.4014  159.9312 C.ar    1  UNL1        0.0536
     23 C         139.9125  138.4513  158.9752 C.ar    1  UNL1        0.0076
     24 C         140.1148  138.0846  157.5349 C.ar    1  UNL1        0.0373
     25 C         141.4720  137.6682  157.0505 C.ar    1  UNL1        0.1468
     26 C         142.6268  137.6183  158.0065 C.ar    1  UNL1        0.0373
     27 C         142.4244  137.9849  159.4468 C.ar    1  UNL1        0.0076
     28 O         141.6743  137.3016  155.6101 O.3     1  UNL1       -0.4045
     29 C         142.4910  136.0958  155.2508 C.3     1  UNL1        0.5753
     30 F         143.3077  134.8900  154.8914 F       1  UNL1       -0.1328
     31 F         141.4516  135.2078  155.8682 F       1  UNL1       -0.1328
     32 F         143.5304  136.9837  154.6333 F       1  UNL1       -0.1328
@<TRIPOS>BOND
     1    11    12    1
     2    12    13    1
     3    13    14    1
     4    14    15    1
     5    15     1    1
     6     1     2   ar
     7     2     3   ar
     8     3     4   ar
     9     4     5   ar
    10     5     6   ar
    11     6     7    1
    12     7     8    1
    13     8    18    1
    14    18    19   am
    15    19    20    2
    16    19    22    1
    17    22    23   ar
    18    23    24   ar
    19    24    25   ar
    20    25    28    1
    21    28    29    1
    22    29    30    1
    23    29    31    1
    24    29    32    1
    25    25    26   ar
    26    26    27   ar
    27     8     9    1
    28     9    10    1
    29    15    16    1
    30    16    17    1
    31    17    12    1
    32     6     1   ar
    33    27    22   ar
    34    10     5    1
    35    18    21    1
@<TRIPOS>MOLECULE
*****
 32 35 0 0 0
SMALL
GASTEIGER

@<TRIPOS>ATOM
      1 C         141.5380  141.2287  164.7083 C.ar    1  UNL1        0.0468
      2 C         141.9631  140.6223  166.0128 C.ar    1  UNL1        0.0144
      3 C         143.0088  141.2987  166.8488 C.ar    1  UNL1        0.0044
      4 C         143.6294  142.5815  166.3803 C.ar    1  UNL1        0.0367
      5 C         143.2043  143.1878  165.0759 C.ar    1  UNL1        0.1358
      6 C         142.1586  142.5114  164.2399 C.ar    1  UNL1        0.0268
      7 C         141.7335  143.1177  162.9353 C.3     1  UNL1        0.0541
      8 C         142.3541  144.4004  162.4669 C.3     1  UNL1        0.1200
      9 C         143.3999  145.0768  163.3030 C.3     1  UNL1        0.2250
     10 O         143.8249  144.4705  164.6074 O.3     1  UNL1       -0.4739
     11 C         137.3550  138.5232  161.3641 C.3     1  UNL1        0.0897
     12 N         138.4007  139.1995  162.2001 N.3     1  UNL1       -0.2686
     13 C         139.8484  138.8531  162.0152 C.3     1  UNL1        0.0938
     14 C         140.8942  139.5295  162.8513 C.3     1  UNL1        0.1081
     15 N         140.4922  140.5523  163.8722 N.pl3   1  UNL1       -0.3048
     16 C         139.0445  140.8987  164.0572 C.3     1  UNL1        0.1081
     17 C         137.9988  140.2223  163.2212 C.3     1  UNL1        0.0938
     18 N         141.9290  145.0068  161.1624 N.am    1  UNL1       -0.2986
     19 C         142.0484  144.2159  159.8935 C.2     1  UNL1        0.2459
     20 O         142.5929  142.8187  159.9290 O.2     1  UNL1       -0.2701
     21 H         141.5717  145.9238  161.1391 H       1  UNL1        0.1498
     22 C         141.6233  144.8223  158.5890 C.ar    1  UNL1        0.0536
     23 C         140.3970  145.6839  158.5267 C.ar    1  UNL1        0.0076
     24 C         139.9719  146.2903  157.2223 C.ar    1  UNL1        0.0373
     25 C         140.7731  146.0351  155.9802 C.ar    1  UNL1        0.1468
     26 C         141.9994  145.1735  156.0425 C.ar    1  UNL1        0.0373
     27 C         142.4245  144.5671  157.3469 C.ar    1  UNL1        0.0076
     28 O         140.3479  146.6415  154.6757 O.3     1  UNL1       -0.4045
     29 C         139.5270  147.8968  154.6644 C.3     1  UNL1        0.5753
     30 F         138.7060  149.1522  154.6531 F       1  UNL1       -0.1328
     31 F         138.2792  147.0824  154.8371 F       1  UNL1       -0.1328
     32 F         140.7747  148.7113  154.4917 F       1  UNL1       -0.1328
@<TRIPOS>BOND
     1    11    12    1
     2    12    13    1
     3    13    14    1
     4    14    15    1
     5    15     1    1
     6     1     2   ar
     7     2     3   ar
     8     3     4   ar
     9     4     5   ar
    10     5     6   ar
    11     6     7    1
    12     7     8    1
    13     8    18    1
    14    18    19   am
    15    19    20    2
    16    19    22    1
    17    22    23   ar
    18    23    24   ar
    19    24    25   ar
    20    25    28    1
    21    28    29    1
    22    29    30    1
    23    29    31    1
    24    29    32    1
    25    25    26   ar
    26    26    27   ar
    27     8     9    1
    28     9    10    1
    29    15    16    1
    30    16    17    1
    31    17    12    1
    32     6     1   ar
    33    27    22   ar
    34    10     5    1
    35    18    21    1
@<TRIPOS>MOLECULE
*****
 32 35 0 0 0
SMALL
GASTEIGER

@<TRIPOS>ATOM
      1 C         138.8451  144.2654  155.5955 C.ar    1  UNL1        0.0468
      2 C         138.8632  145.3378  154.5469 C.ar    1  UNL1        0.0144
      3 C         139.6445  146.5976  154.7760 C.ar    1  UNL1        0.0044
      4 C         140.4076  146.7850  156.0538 C.ar    1  UNL1        0.0367
      5 C         140.3894  145.7126  157.1024 C.ar    1  UNL1        0.1358
      6 C         139.6082  144.4528  156.8732 C.ar    1  UNL1        0.0268
      7 C         139.5900  143.3803  157.9219 C.3     1  UNL1        0.0541
      8 C         140.3530  143.5678  159.1996 C.3     1  UNL1        0.1200
      9 C         141.1343  144.8276  159.4287 C.3     1  UNL1        0.2250
     10 O         141.1525  145.9000  158.3801 O.3     1  UNL1       -0.4739
     11 C         135.7201  139.2260  154.6792 C.3     1  UNL1        0.0897
     12 N         136.5013  140.4858  154.9082 N.3     1  UNL1       -0.2686
     13 C         135.8217  141.6973  155.4745 C.3     1  UNL1        0.0938
     14 C         136.6030  142.9571  155.7036 C.3     1  UNL1        0.1081
     15 N         138.0638  143.0055  155.3664 N.pl3   1  UNL1       -0.3048
     16 C         138.7434  141.7941  154.8002 C.3     1  UNL1        0.1081
     17 C         137.9622  140.5343  154.5711 C.3     1  UNL1        0.0938
     18 N         140.3349  142.4954  160.2482 N.am    1  UNL1       -0.2986
     19 C         139.2715  142.4988  161.3062 C.2     1  UNL1        0.2459
     20 O         138.2263  143.5746  161.3155 O.2     1  UNL1       -0.2701
     21 H         141.0209  141.7892  160.2421 H       1  UNL1        0.1498
     22 C         139.2534  141.4263  162.3548 C.ar    1  UNL1        0.0536
     23 C         140.3866  141.3127  163.3310 C.ar    1  UNL1        0.0076
     24 C         140.3686  140.2403  164.3796 C.ar    1  UNL1        0.0373
     25 C         139.2173  139.2816  164.4520 C.ar    1  UNL1        0.1468
     26 C         138.0840  139.3953  163.4759 C.ar    1  UNL1        0.0373
     27 C         138.1021  140.4676  162.4273 C.ar    1  UNL1        0.0076
     28 O         139.1991  138.2091  165.5007 O.3     1  UNL1       -0.4045
     29 C         138.0659  138.1376  166.4807 C.3     1  UNL1        0.5753
     30 F         136.9326  138.0661  167.4608 F       1  UNL1       -0.1328
     31 F         138.2768  139.5811  166.8299 F       1  UNL1       -0.1328
     32 F         137.8549  136.6941  166.1315 F       1  UNL1       -0.1328
@<TRIPOS>BOND
     1    11    12    1
     2    12    13    1
     3    13    14    1
     4    14    15    1
     5    15     1    1
     6     1     2   ar
     7     2     3   ar
     8     3     4   ar
     9     4     5   ar
    10     5     6   ar
    11     6     7    1
    12     7     8    1
    13     8    18    1
    14    18    19   am
    15    19    20    2
    16    19    22    1
    17    22    23   ar
    18    23    24   ar
    19    24    25   ar
    20    25    28    1
    21    28    29    1
    22    29    30    1
    23    29    31    1
    24    29    32    1
    25    25    26   ar
    26    26    27   ar
    27     8     9    1
    28     9    10    1
    29    15    16    1
    30    16    17    1
    31    17    12    1
    32     6     1   ar
    33    27    22   ar
    34    10     5    1
    35    18    21    1
@<TRIPOS>MOLECULE
*****
 32 35 0 0 0
SMALL
GASTEIGER

@<TRIPOS>ATOM
      1 C         141.7506  142.4241  163.7964 C.ar    1  UNL1        0.0468
      2 C         142.1928  143.5022  164.7409 C.ar    1  UNL1        0.0144
      3 C         143.0255  144.6442  164.2384 C.ar    1  UNL1        0.0044
      4 C         143.4160  144.7079  162.7915 C.ar    1  UNL1        0.0367
      5 C         142.9738  143.6298  161.8471 C.ar    1  UNL1        0.1358
      6 C         142.1411  142.4879  162.3496 C.ar    1  UNL1        0.0268
      7 C         141.6988  141.4097  161.4051 C.3     1  UNL1        0.0541
      8 C         142.0893  141.4734  159.9582 C.3     1  UNL1        0.1200
      9 C         142.9221  142.6155  159.4558 C.3     1  UNL1        0.2250
     10 O         143.3643  143.6936  160.4002 O.3     1  UNL1       -0.4739
     11 C         138.4196  137.8561  165.8061 C.3     1  UNL1        0.0897
     12 N         139.2523  138.9981  165.3037 N.3     1  UNL1       -0.2686
     13 C         138.5891  140.2073  164.7138 C.3     1  UNL1        0.0938
     14 C         139.4219  141.3493  164.2114 C.3     1  UNL1        0.1081
     15 N         140.9178  141.2821  164.2988 N.pl3   1  UNL1       -0.3048
     16 C         141.5810  140.0729  164.8887 C.3     1  UNL1        0.1081
     17 C         140.7483  138.9309  165.3911 C.3     1  UNL1        0.0938
     18 N         141.6471  140.3953  159.0138 N.am    1  UNL1       -0.2986
     19 C         142.6134  139.3314  158.5847 C.2     1  UNL1        0.2459
     20 O         144.0220  139.3455  159.1000 O.2     1  UNL1       -0.2701
     21 H         140.7225  140.3860  158.6756 H       1  UNL1        0.1498
     22 C         142.1711  138.2532  157.6402 C.ar    1  UNL1        0.0536
     23 C         142.8709  136.9264  157.6359 C.ar    1  UNL1        0.0076
     24 C         142.4287  135.8483  156.6915 C.ar    1  UNL1        0.0373
     25 C         141.2867  136.0969  155.7514 C.ar    1  UNL1        0.1468
     26 C         140.5869  137.4236  155.7556 C.ar    1  UNL1        0.0373
     27 C         141.0291  138.5018  156.7000 C.ar    1  UNL1        0.0076
     28 O         140.8443  135.0187  154.8069 O.3     1  UNL1       -0.4045
     29 C         141.7922  133.9205  154.4255 C.3     1  UNL1        0.5753
     30 F         142.7401  132.8223  154.0442 F       1  UNL1       -0.1328
     31 F         141.1341  133.0080  155.4176 F       1  UNL1       -0.1328
     32 F         142.4503  134.8330  153.4334 F       1  UNL1       -0.1328
@<TRIPOS>BOND
     1    11    12    1
     2    12    13    1
     3    13    14    1
     4    14    15    1
     5    15     1    1
     6     1     2   ar
     7     2     3   ar
     8     3     4   ar
     9     4     5   ar
    10     5     6   ar
    11     6     7    1
    12     7     8    1
    13     8    18    1
    14    18    19   am
    15    19    20    2
    16    19    22    1
    17    22    23   ar
    18    23    24   ar
    19    24    25   ar
    20    25    28    1
    21    28    29    1
    22    29    30    1
    23    29    31    1
    24    29    32    1
    25    25    26   ar
    26    26    27   ar
    27     8     9    1
    28     9    10    1
    29    15    16    1
    30    16    17    1
    31    17    12    1
    32     6     1   ar
    33    27    22   ar
    34    10     5    1
    35    18    21    1
@<TRIPOS>MOLECULE
*****
 32 35 0 0 0
SMALL
GASTEIGER

@<TRIPOS>ATOM
      1 C         140.6951  141.0168  167.1671 C.ar    1  UNL1        0.0468
      2 C         140.3639  141.0595  168.6294 C.ar    1  UNL1        0.0144
      3 C         141.1499  140.2297  169.6009 C.ar    1  UNL1        0.0044
      4 C         142.2670  139.3573  169.1100 C.ar    1  UNL1        0.0367
      5 C         142.5982  139.3146  167.6476 C.ar    1  UNL1        0.1358
      6 C         141.8122  140.1444  166.6762 C.ar    1  UNL1        0.0268
      7 C         142.1433  140.1017  165.2138 C.3     1  UNL1        0.0541
      8 C         143.2604  139.2293  164.7229 C.3     1  UNL1        0.1200
      9 C         144.0464  138.3995  165.6944 C.3     1  UNL1        0.2250
     10 O         143.7153  138.4422  167.1567 O.3     1  UNL1       -0.4739
     11 C         137.5512  144.3356  163.2810 C.3     1  UNL1        0.0897
     12 N         138.3371  143.5059  164.2525 N.3     1  UNL1       -0.2686
     13 C         139.4359  144.1338  165.0578 C.3     1  UNL1        0.0938
     14 C         140.2218  143.3041  166.0294 C.3     1  UNL1        0.1081
     15 N         139.9091  141.8465  166.1955 N.pl3   1  UNL1       -0.3048
     16 C         138.8104  141.2186  165.3902 C.3     1  UNL1        0.1081
     17 C         138.0244  142.0483  164.4187 C.3     1  UNL1        0.0938
     18 N         143.5915  139.1866  163.2605 N.am    1  UNL1       -0.2986
     19 C         142.4981  139.0119  162.2487 C.2     1  UNL1        0.2459
     20 O         141.0735  138.8799  162.6992 O.2     1  UNL1       -0.2701
     21 H         144.5266  139.2733  162.9648 H       1  UNL1        0.1498
     22 C         142.8293  138.9692  160.7863 C.ar    1  UNL1        0.0536
     23 C         143.4946  140.1444  160.1334 C.ar    1  UNL1        0.0076
     24 C         143.8258  140.1017  158.6711 C.ar    1  UNL1        0.0373
     25 C         143.4917  138.8839  157.8617 C.ar    1  UNL1        0.1468
     26 C         142.8263  137.7087  158.5146 C.ar    1  UNL1        0.0373
     27 C         142.4951  137.7514  159.9769 C.ar    1  UNL1        0.0076
     28 O         143.8229  138.8412  156.3992 O.3     1  UNL1       -0.4045
     29 C         143.3302  137.7060  155.5515 C.3     1  UNL1        0.5753
     30 F         142.8376  136.5708  154.7038 F       1  UNL1       -0.1328
     31 F         144.6818  137.0603  155.6309 F       1  UNL1       -0.1328
     32 F         141.9787  138.3518  155.4722 F       1  UNL1       -0.1328
@<TRIPOS>BOND
     1    11    12    1
     2    12    13    1
     3    13    14    1
     4    14    15    1
     5    15     1    1
     6     1     2   ar
     7     2     3   ar
     8     3     4   ar
     9     4     5   ar
    10     5     6   ar
    11     6     7    1
    12     7     8    1
    13     8    18    1
    14    18    19   am
    15    19    20    2
    16    19    22    1
    17    22    23   ar
    18    23    24   ar
    19    24    25   ar
    20    25    28    1
    21    28    29    1
    22    29    30    1
    23    29    31    1
    24    29    32    1
    25    25    26   ar
    26    26    27   ar
    27     8     9    1
    28     9    10    1
    29    15    16    1
    30    16    17    1
    31    17    12    1
    32     6     1   ar
    33    27    22   ar
    34    10     5    1
    35    18    21    1
@<TRIPOS>MOLECULE
*****
 32 35 0 0 0
SMALL
GASTEIGER

@<TRIPOS>ATOM
      1 C         141.3852  141.4011  165.0018 C.ar    1  UNL1        0.0468
      2 C         141.5335  141.1979  166.4805 C.ar    1  UNL1        0.0144
      3 C         140.8756  142.1470  167.4377 C.ar    1  UNL1        0.0044
      4 C         140.0694  143.2993  166.9162 C.ar    1  UNL1        0.0367
      5 C         139.9210  143.5026  165.4374 C.ar    1  UNL1        0.1358
      6 C         140.5789  142.5535  164.4803 C.ar    1  UNL1        0.0268
      7 C         140.4306  142.7567  163.0014 C.3     1  UNL1        0.0541
      8 C         139.6243  143.9090  162.4799 C.3     1  UNL1        0.1200
      9 C         138.9664  144.8582  163.4372 C.3     1  UNL1        0.2250
     10 O         139.1147  144.6550  164.9159 O.3     1  UNL1       -0.4739
     11 C         144.0169  137.6047  161.1727 C.3     1  UNL1        0.0897
     12 N         143.3590  138.5537  162.1300 N.3     1  UNL1       -0.2686
     13 C         141.9812  138.2627  162.6468 C.3     1  UNL1        0.0938
     14 C         141.3233  139.2119  163.6041 C.3     1  UNL1        0.1081
     15 N         142.0431  140.4520  164.0445 N.pl3   1  UNL1       -0.3048
     16 C         143.4209  140.7430  163.5277 C.3     1  UNL1        0.1081
     17 C         144.0788  139.7939  162.5704 C.3     1  UNL1        0.0938
     18 N         139.4759  144.1123  161.0012 N.am    1  UNL1       -0.2986
     19 C         140.6599  144.5261  160.1785 C.2     1  UNL1        0.2459
     20 O         141.9923  144.7367  160.8345 O.2     1  UNL1       -0.2701
     21 H         138.6014  143.9741  160.5706 H       1  UNL1        0.1498
     22 C         140.5115  144.7294  158.6997 C.ar    1  UNL1        0.0536
     23 C         139.6530  143.7974  157.8970 C.ar    1  UNL1        0.0076
     24 C         139.5046  144.0006  156.4183 C.ar    1  UNL1        0.0373
     25 C         140.2146  145.1358  155.7423 C.ar    1  UNL1        0.1468
     26 C         141.0732  146.0678  156.5450 C.ar    1  UNL1        0.0373
     27 C         141.2216  145.8646  158.0237 C.ar    1  UNL1        0.0076
     28 O         140.0662  145.3390  154.2635 O.3     1  UNL1       -0.4045
     29 C         141.0182  146.2371  153.5306 C.3     1  UNL1        0.5753
     30 F         141.9702  147.1353  152.7978 F       1  UNL1       -0.1328
     31 F         140.0740  147.3880  153.7145 F       1  UNL1       -0.1328
     32 F         141.9625  145.0862  153.3468 F       1  UNL1       -0.1328
@<TRIPOS>BOND
     1    11    12    1
     2    12    13    1
     3    13    14    1
     4    14    15    1
     5    15     1    1
     6     1     2   ar
     7     2     3   ar
     8     3     4   ar
     9     4     5   ar
    10     5     6   ar
    11     6     7    1
    12     7     8    1
    13     8    18    1
    14    18    19   am
    15    19    20    2
    16    19    22    1
    17    22    23   ar
    18    23    24   ar
    19    24    25   ar
    20    25    28    1
    21    28    29    1
    22    29    30    1
    23    29    31    1
    24    29    32    1
    25    25    26   ar
    26    26    27   ar
    27     8     9    1
    28     9    10    1
    29    15    16    1
    30    16    17    1
    31    17    12    1
    32     6     1   ar
    33    27    22   ar
    34    10     5    1
    35    18    21    1
