@<TRIPOS>MOLECULE
*****
 39 44 0 0 0
SMALL
GASTEIGER

@<TRIPOS>ATOM
      1 C         139.9754  145.9308  160.7464 C.3     1  UNL1        0.0843
      2 N         140.3577  145.1824  161.9888 N.3     1  UNL1       -0.2713
      3 C         139.2296  144.8448  162.9182 C.3     1  UNL1        0.0768
      4 C         139.2827  144.1119  164.2260 C.3     1  UNL1        0.0434
      5 C         140.4769  143.5357  164.9272 C.ar    1  UNL1       -0.0233
      6 C         140.0899  142.8804  166.2199 C.ar    1  UNL1        0.0178
      7 C         141.1389  142.2393  167.0793 C.ar    1  UNL1        0.1181
      8 N         141.0587  141.5231  168.3948 N.ar    1  UNL1       -0.2050
      9 C         142.4451  141.0947  168.7747 C.ar    1  UNL1        0.3031
     10 O         143.3822  141.5462  167.6939 O.2     1  UNL1       -0.4321
     11 C         142.5749  142.2536  166.6462 C.ar    1  UNL1        0.1603
     12 C         142.9619  142.9089  165.3535 C.ar    1  UNL1        0.0101
     13 C         144.3979  142.9231  164.9204 C.3     1  UNL1        0.0339
     14 C         141.9129  143.5499  164.4941 C.ar    1  UNL1       -0.0256
     15 C         142.5094  144.1440  163.2526 C.3     1  UNL1        0.0431
     16 C         141.8172  144.8705  162.1377 C.3     1  UNL1        0.0768
     17 C         142.8273  140.3463  170.0172 C.3     1  UNL1        0.4696
     18 F         143.2094  139.5978  171.2596 F       1  UNL1       -0.1619
     19 F         141.7118  139.3733  169.7741 F       1  UNL1       -0.1619
     20 F         143.9427  141.3192  170.2602 F       1  UNL1       -0.1619
     21 C         140.5796  145.5520  159.4268 C.3     1  UNL1        0.0824
     22 S         140.1382  144.2978  158.7322 S.3     1  UNL1       -0.0742
     23 C         139.6637  141.0864  160.8599 C.ar    1  UNL1        0.1669
     24 N         138.2417  141.5300  160.6835 N.ar    1  UNL1       -0.1282
     25 N         138.2463  142.7870  159.8651 N.ar    1  UNL1       -0.1221
     26 C         139.6713  143.1203  159.5355 C.ar    1  UNL1        0.1933
     27 N         140.5473  142.0692  160.1503 N.ar    1  UNL1       -0.2884
     28 C         142.0439  142.0112  160.0698 C.3     1  UNL1        0.1340
     29 C         137.9233  138.7276  167.0773 C.3     1  UNL1        0.0521
     30 C         138.4729  139.0139  165.7113 C.ar    1  UNL1        0.0593
     31 C         138.0148  140.2274  164.9578 C.ar    1  UNL1        0.0147
     32 C         138.5645  140.5137  163.5918 C.ar    1  UNL1        0.0028
     33 C         139.5722  139.5866  162.9793 C.ar    1  UNL1        0.0206
     34 C         140.1218  139.8729  161.6134 C.ar    1  UNL1        0.0374
     35 C         141.1295  138.9459  161.0009 C.ar    1  UNL1        0.0031
     36 C         141.5876  137.7325  161.7544 C.ar    1  UNL1        0.0016
     37 C         141.0380  137.4462  163.1204 C.ar    1  UNL1        0.0191
     38 C         140.0303  138.3732  163.7329 C.ar    1  UNL1        0.0810
     39 N         139.4807  138.0869  165.0989 N.ar    1  UNL1       -0.2497
@<TRIPOS>BOND
     1    29    30    1
     2    30    31   ar
     3    31    32   ar
     4    32    33   ar
     5    33    34   ar
     6    34    23    1
     7    23    24   ar
     8    24    25   ar
     9    25    26   ar
    10    26    22    1
    11    22    21    1
    12    21     1    1
    13     1     2    1
    14     2     3    1
    15     3     4    1
    16     4     5    1
    17     5     6   ar
    18     6     7   ar
    19     7     8   ar
    20     8     9   ar
    21     9    17    1
    22    17    18    1
    23    17    19    1
    24    17    20    1
    25     9    10   ar
    26    10    11   ar
    27    11    12   ar
    28    12    13    1
    29    12    14   ar
    30    14    15    1
    31    15    16    1
    32    26    27   ar
    33    27    28    1
    34    34    35   ar
    35    35    36   ar
    36    36    37   ar
    37    37    38   ar
    38    38    39   ar
    39    39    30   ar
    40    38    33   ar
    41    27    23   ar
    42    16     2    1
    43    14     5   ar
    44    11     7   ar
@<TRIPOS>MOLECULE
*****
 39 44 0 0 0
SMALL
GASTEIGER

@<TRIPOS>ATOM
      1 C         140.0279  145.9031  160.6822 C.3     1  UNL1        0.0843
      2 N         140.4058  145.1776  161.9394 N.3     1  UNL1       -0.2713
      3 C         139.2775  144.8750  162.8804 C.3     1  UNL1        0.0768
      4 C         139.3268  144.1706  164.2039 C.3     1  UNL1        0.0434
      5 C         140.5165  143.5950  164.9132 C.ar    1  UNL1       -0.0233
      6 C         140.1266  142.9734  166.2215 C.ar    1  UNL1        0.0178
      7 C         141.1710  142.3383  167.0909 C.ar    1  UNL1        0.1181
      8 N         141.0872  141.6525  168.4223 N.ar    1  UNL1       -0.2050
      9 C         142.4697  141.2151  168.8062 C.ar    1  UNL1        0.3031
     10 O         143.4079  141.6306  167.7121 O.2     1  UNL1       -0.4321
     11 C         142.6053  142.3248  166.6521 C.ar    1  UNL1        0.1603
     12 C         142.9952  142.9464  165.3437 C.ar    1  UNL1        0.0101
     13 C         144.4294  142.9329  164.9048 C.3     1  UNL1        0.0339
     14 C         141.9508  143.5815  164.4743 C.ar    1  UNL1       -0.0256
     15 C         142.5496  144.1403  163.2177 C.3     1  UNL1        0.0431
     16 C         141.8619  144.8506  162.0896 C.3     1  UNL1        0.0768
     17 C         142.8476  140.4896  170.0635 C.3     1  UNL1        0.4696
     18 F         143.2254  139.7640  171.3208 F       1  UNL1       -0.1619
     19 F         141.6500  139.5995  169.9098 F       1  UNL1       -0.1619
     20 F         144.0452  141.3795  170.2173 F       1  UNL1       -0.1619
     21 C         140.5605  145.4386  159.3592 C.3     1  UNL1        0.0824
     22 S         140.0442  144.1705  158.7463 S.3     1  UNL1       -0.0742
     23 C         140.4201  140.7865  160.6098 C.ar    1  UNL1        0.1669
     24 N         141.6853  140.8162  159.8047 N.ar    1  UNL1       -0.1282
     25 N         141.6986  142.0874  159.0086 N.ar    1  UNL1       -0.1221
     26 C         140.4414  142.8434  159.3217 C.ar    1  UNL1        0.1933
     27 N         139.6513  142.0395  160.3113 N.ar    1  UNL1       -0.2884
     28 C         138.3252  142.4214  160.8992 C.3     1  UNL1        0.1340
     29 C         143.4635  138.2584  166.2309 C.3     1  UNL1        0.0521
     30 C         142.5971  138.6177  165.0603 C.ar    1  UNL1        0.0593
     31 C         143.0194  139.7087  164.1215 C.ar    1  UNL1        0.0147
     32 C         142.1529  140.0680  162.9509 C.ar    1  UNL1        0.0028
     33 C         140.8642  139.3362  162.7191 C.ar    1  UNL1        0.0206
     34 C         139.9978  139.6955  161.5486 C.ar    1  UNL1        0.0374
     35 C         138.7090  138.9638  161.3168 C.ar    1  UNL1        0.0031
     36 C         138.2867  137.8728  162.2557 C.ar    1  UNL1        0.0016
     37 C         139.1532  137.5135  163.4262 C.ar    1  UNL1        0.0191
     38 C         140.4419  138.2453  163.6580 C.ar    1  UNL1        0.0810
     39 N         141.3083  137.8860  164.8286 N.ar    1  UNL1       -0.2497
@<TRIPOS>BOND
     1    29    30    1
     2    30    31   ar
     3    31    32   ar
     4    32    33   ar
     5    33    34   ar
     6    34    23    1
     7    23    24   ar
     8    24    25   ar
     9    25    26   ar
    10    26    22    1
    11    22    21    1
    12    21     1    1
    13     1     2    1
    14     2     3    1
    15     3     4    1
    16     4     5    1
    17     5     6   ar
    18     6     7   ar
    19     7     8   ar
    20     8     9   ar
    21     9    17    1
    22    17    18    1
    23    17    19    1
    24    17    20    1
    25     9    10   ar
    26    10    11   ar
    27    11    12   ar
    28    12    13    1
    29    12    14   ar
    30    14    15    1
    31    15    16    1
    32    26    27   ar
    33    27    28    1
    34    34    35   ar
    35    35    36   ar
    36    36    37   ar
    37    37    38   ar
    38    38    39   ar
    39    39    30   ar
    40    38    33   ar
    41    27    23   ar
    42    16     2    1
    43    14     5   ar
    44    11     7   ar
@<TRIPOS>MOLECULE
*****
 39 44 0 0 0
SMALL
GASTEIGER

@<TRIPOS>ATOM
      1 C         143.9678  137.8732  160.9968 C.3     1  UNL1        0.0843
      2 N         143.4108  138.5352  162.2222 N.3     1  UNL1       -0.2713
      3 C         142.2335  137.8519  162.8527 C.3     1  UNL1        0.0768
      4 C         141.4593  138.2577  164.0718 C.3     1  UNL1        0.0434
      5 C         141.6711  139.4466  164.9613 C.ar    1  UNL1       -0.0233
      6 C         140.6695  139.4813  166.0774 C.ar    1  UNL1        0.0178
      7 C         140.7061  140.5931  167.0837 C.ar    1  UNL1        0.1181
      8 N         139.8555  140.8898  168.2830 N.ar    1  UNL1       -0.2050
      9 C         140.3680  142.1502  168.9145 C.ar    1  UNL1        0.3031
     10 O         141.5354  142.6324  168.1055 O.2     1  UNL1       -0.4321
     11 C         141.7444  141.6701  166.9741 C.ar    1  UNL1        0.1603
     12 C         142.7461  141.6354  165.8580 C.ar    1  UNL1        0.0101
     13 C         143.7843  142.7123  165.7483 C.3     1  UNL1        0.0339
     14 C         142.7094  140.5236  164.8517 C.ar    1  UNL1       -0.0256
     15 C         143.7923  140.6776  163.8252 C.3     1  UNL1        0.0431
     16 C         144.1044  139.7926  162.6550 C.3     1  UNL1        0.0768
     17 C         139.8108  142.8121  170.1399 C.3     1  UNL1        0.4696
     18 F         139.2537  143.4740  171.3652 F       1  UNL1       -0.1619
     19 F         140.7439  143.9693  169.9391 F       1  UNL1       -0.1619
     20 F         138.8778  141.6550  170.3407 F       1  UNL1       -0.1619
     21 C         143.0406  137.3405  159.9449 C.3     1  UNL1        0.0824
     22 S         142.5208  138.2514  158.8724 S.3     1  UNL1       -0.0742
     23 C         140.5096  141.4372  159.8059 C.ar    1  UNL1        0.1669
     24 N         139.4066  140.4320  159.6547 N.ar    1  UNL1       -0.1282
     25 N         140.0256  139.1163  159.2866 N.ar    1  UNL1       -0.1221
     26 C         141.5114  139.3082  159.2103 C.ar    1  UNL1        0.1933
     27 N         141.8105  140.7427  159.5313 N.ar    1  UNL1       -0.2884
     28 C         143.1715  141.3721  159.5707 C.3     1  UNL1        0.1340
     29 C         139.1288  144.4343  165.8359 C.3     1  UNL1        0.0521
     30 C         139.4320  144.0465  164.4190 C.ar    1  UNL1        0.0593
     31 C         139.6002  142.6006  164.0567 C.ar    1  UNL1        0.0147
     32 C         139.9033  142.2128  162.6397 C.ar    1  UNL1        0.0028
     33 C         140.0383  143.2709  161.5850 C.ar    1  UNL1        0.0206
     34 C         140.3414  142.8831  160.1682 C.ar    1  UNL1        0.0374
     35 C         140.4764  143.9411  159.1134 C.ar    1  UNL1        0.0031
     36 C         140.3082  145.3869  159.4758 C.ar    1  UNL1        0.0016
     37 C         140.0050  145.7747  160.8927 C.ar    1  UNL1        0.0191
     38 C         139.8701  144.7167  161.9474 C.ar    1  UNL1        0.0810
     39 N         139.5669  145.1045  163.3643 N.ar    1  UNL1       -0.2497
@<TRIPOS>BOND
     1    29    30    1
     2    30    31   ar
     3    31    32   ar
     4    32    33   ar
     5    33    34   ar
     6    34    23    1
     7    23    24   ar
     8    24    25   ar
     9    25    26   ar
    10    26    22    1
    11    22    21    1
    12    21     1    1
    13     1     2    1
    14     2     3    1
    15     3     4    1
    16     4     5    1
    17     5     6   ar
    18     6     7   ar
    19     7     8   ar
    20     8     9   ar
    21     9    17    1
    22    17    18    1
    23    17    19    1
    24    17    20    1
    25     9    10   ar
    26    10    11   ar
    27    11    12   ar
    28    12    13    1
    29    12    14   ar
    30    14    15    1
    31    15    16    1
    32    26    27   ar
    33    27    28    1
    34    34    35   ar
    35    35    36   ar
    36    36    37   ar
    37    37    38   ar
    38    38    39   ar
    39    39    30   ar
    40    38    33   ar
    41    27    23   ar
    42    16     2    1
    43    14     5   ar
    44    11     7   ar
@<TRIPOS>MOLECULE
*****
 39 44 0 0 0
SMALL
GASTEIGER

@<TRIPOS>ATOM
      1 C         143.8818  137.7130  160.9971 C.3     1  UNL1        0.0843
      2 N         143.3393  138.3936  162.2188 N.3     1  UNL1       -0.2713
      3 C         144.1973  139.4822  162.7923 C.3     1  UNL1        0.0768
      4 C         143.9384  140.3417  163.9942 C.3     1  UNL1        0.0434
      5 C         142.7578  140.3248  164.9192 C.ar    1  UNL1       -0.0233
      6 C         142.8948  141.3545  166.0014 C.ar    1  UNL1        0.0178
      7 C         141.8183  141.5037  167.0353 C.ar    1  UNL1        0.1181
      8 N         141.6773  142.4231  168.2121 N.ar    1  UNL1       -0.2050
      9 C         140.3768  142.1108  168.8912 C.ar    1  UNL1        0.3031
     10 O         139.7140  140.9984  168.1341 O.2     1  UNL1       -0.4321
     11 C         140.6048  140.6232  166.9871 C.ar    1  UNL1        0.1603
     12 C         140.4679  139.5935  165.9049 C.ar    1  UNL1        0.0101
     13 C         139.2545  138.7131  165.8567 C.3     1  UNL1        0.0339
     14 C         141.5444  139.4443  164.8710 C.ar    1  UNL1       -0.0256
     15 C         141.2119  138.3632  163.8858 C.3     1  UNL1        0.0431
     16 C         142.0108  137.8957  162.7055 C.3     1  UNL1        0.0768
     17 C         139.8345  142.7914  170.1129 C.3     1  UNL1        0.4696
     18 F         139.2921  143.4720  171.3345 F       1  UNL1       -0.1619
     19 F         138.8760  141.6562  170.3198 F       1  UNL1       -0.1619
     20 F         140.7928  143.9266  169.9060 F       1  UNL1       -0.1619
     21 C         142.9520  137.2917  159.8981 C.3     1  UNL1        0.0824
     22 S         142.5998  138.2548  158.8032 S.3     1  UNL1       -0.0742
     23 C         140.5741  141.4667  159.6067 C.ar    1  UNL1        0.1669
     24 N         139.4738  140.5117  159.2499 N.ar    1  UNL1       -0.1282
     25 N         140.0986  139.1923  158.9055 N.ar    1  UNL1       -0.1221
     26 C         141.5852  139.3318  159.0494 C.ar    1  UNL1        0.1933
     27 N         141.8791  140.7375  159.4828 N.ar    1  UNL1       -0.2884
     28 C         143.2390  141.3129  159.7461 C.3     1  UNL1        0.1340
     29 C         139.2708  144.2671  165.7475 C.3     1  UNL1        0.0521
     30 C         139.5531  143.9252  164.3145 C.ar    1  UNL1        0.0593
     31 C         139.7271  142.4925  163.9056 C.ar    1  UNL1        0.0147
     32 C         140.0095  142.1506  162.4725 C.ar    1  UNL1        0.0028
     33 C         140.1177  143.2413  161.4485 C.ar    1  UNL1        0.0206
     34 C         140.4000  142.8994  160.0156 C.ar    1  UNL1        0.0374
     35 C         140.5083  143.9900  158.9915 C.ar    1  UNL1        0.0031
     36 C         140.3343  145.4227  159.4005 C.ar    1  UNL1        0.0016
     37 C         140.0520  145.7646  160.8335 C.ar    1  UNL1        0.0191
     38 C         139.9437  144.6739  161.8575 C.ar    1  UNL1        0.0810
     39 N         139.6614  145.0159  163.2905 N.ar    1  UNL1       -0.2497
@<TRIPOS>BOND
     1    29    30    1
     2    30    31   ar
     3    31    32   ar
     4    32    33   ar
     5    33    34   ar
     6    34    23    1
     7    23    24   ar
     8    24    25   ar
     9    25    26   ar
    10    26    22    1
    11    22    21    1
    12    21     1    1
    13     1     2    1
    14     2     3    1
    15     3     4    1
    16     4     5    1
    17     5     6   ar
    18     6     7   ar
    19     7     8   ar
    20     8     9   ar
    21     9    17    1
    22    17    18    1
    23    17    19    1
    24    17    20    1
    25     9    10   ar
    26    10    11   ar
    27    11    12   ar
    28    12    13    1
    29    12    14   ar
    30    14    15    1
    31    15    16    1
    32    26    27   ar
    33    27    28    1
    34    34    35   ar
    35    35    36   ar
    36    36    37   ar
    37    37    38   ar
    38    38    39   ar
    39    39    30   ar
    40    38    33   ar
    41    27    23   ar
    42    16     2    1
    43    14     5   ar
    44    11     7   ar
@<TRIPOS>MOLECULE
*****
 39 44 0 0 0
SMALL
GASTEIGER

@<TRIPOS>ATOM
      1 C         142.9363  137.6762  159.4353 C.3     1  UNL1        0.0843
      2 N         142.6462  138.0334  160.8629 N.3     1  UNL1       -0.2713
      3 C         143.8421  138.3577  161.7084 C.3     1  UNL1        0.0768
      4 C         143.8858  138.7478  163.1562 C.3     1  UNL1        0.0434
      5 C         142.7445  138.9098  164.1159 C.ar    1  UNL1       -0.0233
      6 C         143.2269  139.3132  165.4779 C.ar    1  UNL1        0.0178
      7 C         142.2423  139.5285  166.5888 C.ar    1  UNL1        0.1181
      8 N         142.4198  139.9263  168.0242 N.ar    1  UNL1       -0.2050
      9 C         141.0626  139.9841  168.6604 C.ar    1  UNL1        0.3031
     10 O         140.0464  139.6221  167.6183 O.2     1  UNL1       -0.4321
     11 C         140.7754  139.3405  166.3380 C.ar    1  UNL1        0.1603
     12 C         140.2931  138.9371  164.9761 C.ar    1  UNL1        0.0101
     13 C         138.8263  138.7491  164.7252 C.3     1  UNL1        0.0339
     14 C         141.2776  138.7218  163.8651 C.ar    1  UNL1       -0.0256
     15 C         140.5898  138.3253  162.5925 C.3     1  UNL1        0.0431
     16 C         141.1989  138.0189  161.2564 C.3     1  UNL1        0.0768
     17 C         140.7727  140.3413  170.0881 C.3     1  UNL1        0.4696
     18 F         140.4829  140.6985  171.5158 F       1  UNL1       -0.1619
     19 F         141.9191  139.4836  170.5355 F       1  UNL1       -0.1619
     20 F         139.6264  141.1991  169.6408 F       1  UNL1       -0.1619
     21 C         142.3923  138.5248  158.3244 C.3     1  UNL1        0.0824
     22 S         143.1078  139.7797  157.9201 S.3     1  UNL1       -0.0742
     23 C         142.3471  142.8388  160.1847 C.ar    1  UNL1        0.1669
     24 N         143.8430  142.7758  160.2754 N.ar    1  UNL1       -0.1282
     25 N         144.3101  141.6222  159.4382 N.ar    1  UNL1       -0.1221
     26 C         143.1028  140.9722  158.8299 C.ar    1  UNL1        0.1933
     27 N         141.8896  141.7241  159.2913 N.ar    1  UNL1       -0.2884
     28 C         140.4684  141.4155  158.9238 C.3     1  UNL1        0.1340
     29 C         140.1454  143.2045  166.6861 C.3     1  UNL1        0.0521
     30 C         140.4750  143.3635  165.2314 C.ar    1  UNL1        0.0593
     31 C         141.3584  142.3617  164.5487 C.ar    1  UNL1        0.0147
     32 C         141.6880  142.5208  163.0940 C.ar    1  UNL1        0.0028
     33 C         141.1342  143.6816  162.3220 C.ar    1  UNL1        0.0206
     34 C         141.4637  143.8406  160.8674 C.ar    1  UNL1        0.0374
     35 C         140.9099  145.0014  160.0954 C.ar    1  UNL1        0.0031
     36 C         140.0266  146.0031  160.7782 C.ar    1  UNL1        0.0016
     37 C         139.6970  145.8441  162.2329 C.ar    1  UNL1        0.0191
     38 C         140.2508  144.6833  163.0048 C.ar    1  UNL1        0.0810
     39 N         139.9212  144.5243  164.4595 N.ar    1  UNL1       -0.2497
@<TRIPOS>BOND
     1    29    30    1
     2    30    31   ar
     3    31    32   ar
     4    32    33   ar
     5    33    34   ar
     6    34    23    1
     7    23    24   ar
     8    24    25   ar
     9    25    26   ar
    10    26    22    1
    11    22    21    1
    12    21     1    1
    13     1     2    1
    14     2     3    1
    15     3     4    1
    16     4     5    1
    17     5     6   ar
    18     6     7   ar
    19     7     8   ar
    20     8     9   ar
    21     9    17    1
    22    17    18    1
    23    17    19    1
    24    17    20    1
    25     9    10   ar
    26    10    11   ar
    27    11    12   ar
    28    12    13    1
    29    12    14   ar
    30    14    15    1
    31    15    16    1
    32    26    27   ar
    33    27    28    1
    34    34    35   ar
    35    35    36   ar
    36    36    37   ar
    37    37    38   ar
    38    38    39   ar
    39    39    30   ar
    40    38    33   ar
    41    27    23   ar
    42    16     2    1
    43    14     5   ar
    44    11     7   ar
@<TRIPOS>MOLECULE
*****
 39 44 0 0 0
SMALL
GASTEIGER

@<TRIPOS>ATOM
      1 C         141.4025  145.4545  159.4973 C.3     1  UNL1        0.0843
      2 N         141.3156  144.9104  160.8925 N.3     1  UNL1       -0.2713
      3 C         142.4053  143.9587  161.2888 C.3     1  UNL1        0.0768
      4 C         142.5990  143.2514  162.5974 C.3     1  UNL1        0.0434
      5 C         141.7510  143.3211  163.8326 C.ar    1  UNL1       -0.0233
      6 C         142.3014  142.4527  164.9249 C.ar    1  UNL1        0.0178
      7 C         141.6005  142.3785  166.2490 C.ar    1  UNL1        0.1181
      8 N         141.9045  141.6156  167.5042 N.ar    1  UNL1       -0.2050
      9 C         140.8412  141.9382  168.5118 C.ar    1  UNL1        0.3031
     10 O         139.8801  142.9006  167.8794 O.2     1  UNL1       -0.4321
     11 C         140.3493  143.1727  166.4810 C.ar    1  UNL1        0.1603
     12 C         139.7989  144.0411  165.3887 C.ar    1  UNL1        0.0101
     13 C         138.5478  144.8352  165.6206 C.3     1  UNL1        0.0339
     14 C         140.4998  144.1153  164.0646 C.ar    1  UNL1       -0.0256
     15 C         139.7876  145.0359  163.1184 C.3     1  UNL1        0.0431
     16 C         140.1507  145.3897  161.7067 C.3     1  UNL1        0.0768
     17 C         140.7544  141.3940  169.9069 C.3     1  UNL1        0.4696
     18 F         140.6675  140.8498  171.3020 F       1  UNL1       -0.1619
     19 F         139.2576  141.4694  169.8432 F       1  UNL1       -0.1619
     20 F         142.2511  141.3186  169.9707 F       1  UNL1       -0.1619
     21 C         140.2796  145.2223  158.5304 C.3     1  UNL1        0.0824
     22 S         139.8823  143.8228  158.1645 S.3     1  UNL1       -0.0742
     23 C         139.6109  141.0163  160.8319 C.ar    1  UNL1        0.1669
     24 N         138.2608  141.6592  160.9492 N.ar    1  UNL1       -0.1282
     25 N         138.1981  142.7888  159.9643 N.ar    1  UNL1       -0.1221
     26 C         139.5095  142.8440  159.2382 C.ar    1  UNL1        0.1933
     27 N         140.3827  141.7485  159.7744 N.ar    1  UNL1       -0.2884
     28 C         141.7819  141.4395  159.3310 C.3     1  UNL1        0.1340
     29 C         138.5230  139.2728  167.3914 C.3     1  UNL1        0.0521
     30 C         138.9179  139.4162  165.9514 C.ar    1  UNL1        0.0593
     31 C         138.4259  140.5860  165.1517 C.ar    1  UNL1        0.0147
     32 C         138.8210  140.7294  163.7117 C.ar    1  UNL1        0.0028
     33 C         139.7080  139.7031  163.0715 C.ar    1  UNL1        0.0206
     34 C         140.1029  139.8465  161.6317 C.ar    1  UNL1        0.0374
     35 C         140.9899  138.8202  160.9914 C.ar    1  UNL1        0.0031
     36 C         141.4819  137.6505  161.7911 C.ar    1  UNL1        0.0016
     37 C         141.0869  137.5070  163.2311 C.ar    1  UNL1        0.0191
     38 C         140.1999  138.5333  163.8713 C.ar    1  UNL1        0.0810
     39 N         139.8050  138.3899  165.3112 N.ar    1  UNL1       -0.2497
@<TRIPOS>BOND
     1    29    30    1
     2    30    31   ar
     3    31    32   ar
     4    32    33   ar
     5    33    34   ar
     6    34    23    1
     7    23    24   ar
     8    24    25   ar
     9    25    26   ar
    10    26    22    1
    11    22    21    1
    12    21     1    1
    13     1     2    1
    14     2     3    1
    15     3     4    1
    16     4     5    1
    17     5     6   ar
    18     6     7   ar
    19     7     8   ar
    20     8     9   ar
    21     9    17    1
    22    17    18    1
    23    17    19    1
    24    17    20    1
    25     9    10   ar
    26    10    11   ar
    27    11    12   ar
    28    12    13    1
    29    12    14   ar
    30    14    15    1
    31    15    16    1
    32    26    27   ar
    33    27    28    1
    34    34    35   ar
    35    35    36   ar
    36    36    37   ar
    37    37    38   ar
    38    38    39   ar
    39    39    30   ar
    40    38    33   ar
    41    27    23   ar
    42    16     2    1
    43    14     5   ar
    44    11     7   ar
@<TRIPOS>MOLECULE
*****
 39 44 0 0 0
SMALL
GASTEIGER

@<TRIPOS>ATOM
      1 C         141.4185  145.2721  159.3492 C.3     1  UNL1        0.0843
      2 N         141.3449  144.7838  160.7656 N.3     1  UNL1       -0.2713
      3 C         142.4658  143.8887  161.2044 C.3     1  UNL1        0.0768
      4 C         142.6788  143.2439  162.5420 C.3     1  UNL1        0.0434
      5 C         141.8237  143.3350  163.7709 C.ar    1  UNL1       -0.0233
      6 C         142.3997  142.5329  164.9001 C.ar    1  UNL1        0.0178
      7 C         141.6963  142.4892  166.2242 C.ar    1  UNL1        0.1181
      8 N         142.0217  141.7905  167.5110 N.ar    1  UNL1       -0.2050
      9 C         140.9434  142.1170  168.5013 C.ar    1  UNL1        0.3031
     10 O         139.9516  143.0175  167.8265 O.2     1  UNL1       -0.4321
     11 C         140.4169  143.2475  166.4193 C.ar    1  UNL1        0.1603
     12 C         139.8408  144.0496  165.2901 C.ar    1  UNL1        0.0101
     13 C         138.5615  144.8078  165.4851 C.3     1  UNL1        0.0339
     14 C         140.5442  144.0933  163.9659 C.ar    1  UNL1       -0.0256
     15 C         139.8040  144.9478  162.9802 C.3     1  UNL1        0.0431
     16 C         140.1604  145.2551  161.5559 C.3     1  UNL1        0.0768
     17 C         140.8700  141.6287  169.9177 C.3     1  UNL1        0.4696
     18 F         140.7965  141.1404  171.3340 F       1  UNL1       -0.1619
     19 F         139.4445  142.0880  170.0021 F       1  UNL1       -0.1619
     20 F         142.2954  141.1694  169.8334 F       1  UNL1       -0.1619
     21 C         141.7079  144.3076  158.2375 C.3     1  UNL1        0.0824
     22 S         140.7720  143.1655  157.9727 S.3     1  UNL1       -0.0742
     23 C         140.6900  140.0365  160.2678 C.ar    1  UNL1        0.1669
     24 N         141.7974  139.6742  159.3233 N.ar    1  UNL1       -0.1282
     25 N         141.9630  140.8022  158.3485 N.ar    1  UNL1       -0.1221
     26 C         140.9578  141.8617  158.6907 C.ar    1  UNL1        0.1933
     27 N         140.1710  141.3885  159.8768 N.ar    1  UNL1       -0.2884
     28 C         139.0603  142.1360  160.5533 C.3     1  UNL1        0.1340
     29 C         143.6659  138.2588  166.2036 C.3     1  UNL1        0.0521
     30 C         142.7967  138.4928  165.0037 C.ar    1  UNL1        0.0593
     31 C         143.2974  139.3347  163.8676 C.ar    1  UNL1        0.0147
     32 C         142.4282  139.5686  162.6676 C.ar    1  UNL1        0.0028
     33 C         141.0584  138.9607  162.6038 C.ar    1  UNL1        0.0206
     34 C         140.1893  139.1946  161.4039 C.ar    1  UNL1        0.0374
     35 C         138.8194  138.5868  161.3400 C.ar    1  UNL1        0.0031
     36 C         138.3188  137.7450  162.4761 C.ar    1  UNL1        0.0016
     37 C         139.1879  137.5110  163.6760 C.ar    1  UNL1        0.0191
     38 C         140.5578  138.1189  163.7399 C.ar    1  UNL1        0.0810
     39 N         141.4269  137.8849  164.9398 N.ar    1  UNL1       -0.2497
@<TRIPOS>BOND
     1    29    30    1
     2    30    31   ar
     3    31    32   ar
     4    32    33   ar
     5    33    34   ar
     6    34    23    1
     7    23    24   ar
     8    24    25   ar
     9    25    26   ar
    10    26    22    1
    11    22    21    1
    12    21     1    1
    13     1     2    1
    14     2     3    1
    15     3     4    1
    16     4     5    1
    17     5     6   ar
    18     6     7   ar
    19     7     8   ar
    20     8     9   ar
    21     9    17    1
    22    17    18    1
    23    17    19    1
    24    17    20    1
    25     9    10   ar
    26    10    11   ar
    27    11    12   ar
    28    12    13    1
    29    12    14   ar
    30    14    15    1
    31    15    16    1
    32    26    27   ar
    33    27    28    1
    34    34    35   ar
    35    35    36   ar
    36    36    37   ar
    37    37    38   ar
    38    38    39   ar
    39    39    30   ar
    40    38    33   ar
    41    27    23   ar
    42    16     2    1
    43    14     5   ar
    44    11     7   ar
@<TRIPOS>MOLECULE
*****
 39 44 0 0 0
SMALL
GASTEIGER

@<TRIPOS>ATOM
      1 C         138.7134  137.3678  165.4601 C.3     1  UNL1        0.0843
      2 N         139.3476  137.5993  164.1207 N.3     1  UNL1       -0.2713
      3 C         138.4022  137.9070  162.9974 C.3     1  UNL1        0.0768
      4 C         138.7191  138.1839  161.5576 C.3     1  UNL1        0.0434
      5 C         140.0594  138.2215  160.8855 C.ar    1  UNL1       -0.0233
      6 C         139.9313  138.5370  159.4246 C.ar    1  UNL1        0.0178
      7 C         141.1579  138.6225  158.5654 C.ar    1  UNL1        0.1181
      8 N         141.3424  138.9137  157.1056 N.ar    1  UNL1       -0.2050
      9 C         142.8111  138.8637  156.8050 C.ar    1  UNL1        0.3031
     10 O         143.5343  138.5416  158.0790 O.2     1  UNL1       -0.4321
     11 C         142.5126  138.3925  159.1670 C.ar    1  UNL1        0.1603
     12 C         142.6407  138.0770  160.6279 C.ar    1  UNL1        0.0101
     13 C         143.9953  137.8471  161.2295 C.3     1  UNL1        0.0339
     14 C         141.4142  137.9915  161.4871 C.ar    1  UNL1       -0.0256
     15 C         141.7630  137.6672  162.9094 C.3     1  UNL1        0.0431
     16 C         140.8432  137.4926  164.0815 C.3     1  UNL1        0.0768
     17 C         143.4453  139.0953  155.4655 C.3     1  UNL1        0.4696
     18 F         144.0794  139.3268  154.1260 F       1  UNL1       -0.1619
     19 F         144.5410  139.8830  156.1203 F       1  UNL1       -0.1619
     20 F         142.3496  138.3076  154.8106 F       1  UNL1       -0.1619
     21 C         138.0982  138.5141  166.2069 C.3     1  UNL1        0.0824
     22 S         138.9625  139.6335  166.7072 S.3     1  UNL1       -0.0742
     23 C         140.6762  142.3053  164.4734 C.ar    1  UNL1        0.1669
     24 N         139.2283  142.6308  164.2556 N.ar    1  UNL1       -0.1282
     25 N         138.4100  141.6696  165.0658 N.ar    1  UNL1       -0.1221
     26 C         139.3523  140.7499  165.7844 C.ar    1  UNL1        0.1933
     27 N         140.7529  141.1428  165.4183 N.ar    1  UNL1       -0.2884
     28 C         142.0095  140.4882  165.9106 C.3     1  UNL1        0.1340
     29 C         143.0451  142.2995  158.0206 C.3     1  UNL1        0.0521
     30 C         142.7445  142.4789  159.4792 C.ar    1  UNL1        0.0593
     31 C         141.5780  141.7670  160.0977 C.ar    1  UNL1        0.0147
     32 C         141.2774  141.9464  161.5563 C.ar    1  UNL1        0.0028
     33 C         142.1433  142.8378  162.3964 C.ar    1  UNL1        0.0206
     34 C         141.8428  143.0172  163.8549 C.ar    1  UNL1        0.0374
     35 C         142.7086  143.9085  164.6951 C.ar    1  UNL1        0.0031
     36 C         143.8751  144.6203  164.0766 C.ar    1  UNL1        0.0016
     37 C         144.1757  144.4409  162.6180 C.ar    1  UNL1        0.0191
     38 C         143.3098  143.5496  161.7779 C.ar    1  UNL1        0.0810
     39 N         143.6104  143.3702  160.3193 N.ar    1  UNL1       -0.2497
@<TRIPOS>BOND
     1    29    30    1
     2    30    31   ar
     3    31    32   ar
     4    32    33   ar
     5    33    34   ar
     6    34    23    1
     7    23    24   ar
     8    24    25   ar
     9    25    26   ar
    10    26    22    1
    11    22    21    1
    12    21     1    1
    13     1     2    1
    14     2     3    1
    15     3     4    1
    16     4     5    1
    17     5     6   ar
    18     6     7   ar
    19     7     8   ar
    20     8     9   ar
    21     9    17    1
    22    17    18    1
    23    17    19    1
    24    17    20    1
    25     9    10   ar
    26    10    11   ar
    27    11    12   ar
    28    12    13    1
    29    12    14   ar
    30    14    15    1
    31    15    16    1
    32    26    27   ar
    33    27    28    1
    34    34    35   ar
    35    35    36   ar
    36    36    37   ar
    37    37    38   ar
    38    38    39   ar
    39    39    30   ar
    40    38    33   ar
    41    27    23   ar
    42    16     2    1
    43    14     5   ar
    44    11     7   ar
@<TRIPOS>MOLECULE
*****
 39 44 0 0 0
SMALL
GASTEIGER

@<TRIPOS>ATOM
      1 C         144.7982  142.3883  158.8454 C.3     1  UNL1        0.0843
      2 N         144.4239  142.0781  160.2644 N.3     1  UNL1       -0.2713
      3 C         143.7012  140.7811  160.4782 C.3     1  UNL1        0.0768
      4 C         143.1979  140.1916  161.7625 C.3     1  UNL1        0.0434
      5 C         143.2930  140.7534  163.1499 C.ar    1  UNL1       -0.0233
      6 C         142.6579  139.8397  164.1558 C.ar    1  UNL1        0.0178
      7 C         142.6446  140.2160  165.6078 C.ar    1  UNL1        0.1181
      8 N         142.0965  139.5224  166.8195 N.ar    1  UNL1       -0.2050
      9 C         142.3795  140.3838  168.0145 C.ar    1  UNL1        0.3031
     10 O         143.1026  141.6098  167.5413 O.2     1  UNL1       -0.4321
     11 C         143.2664  141.5062  166.0539 C.ar    1  UNL1        0.1603
     12 C         143.9015  142.4199  165.0480 C.ar    1  UNL1        0.0101
     13 C         144.5233  143.7100  165.4940 C.3     1  UNL1        0.0339
     14 C         143.9148  142.0435  163.5960 C.ar    1  UNL1       -0.0256
     15 C         144.5951  143.0905  162.7647 C.3     1  UNL1        0.0431
     16 C         144.8217  143.1058  161.2820 C.3     1  UNL1        0.0768
     17 C         142.0052  140.0735  169.4335 C.3     1  UNL1        0.4696
     18 F         141.6309  139.7632  170.8525 F       1  UNL1       -0.1619
     19 F         143.3661  140.5109  169.8882 F       1  UNL1       -0.1619
     20 F         140.6444  139.6360  168.9789 F       1  UNL1       -0.1619
     21 C         143.7279  142.6480  157.8270 C.3     1  UNL1        0.0824
     22 S         142.5797  143.5540  158.1601 S.3     1  UNL1       -0.0742
     23 C         139.7758  142.6326  160.6808 C.ar    1  UNL1        0.1669
     24 N         139.4016  141.7783  159.5060 N.ar    1  UNL1       -0.1282
     25 N         140.4064  142.0195  158.4187 N.ar    1  UNL1       -0.1221
     26 C         141.4016  143.0229  158.9215 C.ar    1  UNL1        0.1933
     27 N         141.0119  143.4018  160.3196 N.ar    1  UNL1       -0.2884
     28 C         141.7318  144.3785  161.2015 C.3     1  UNL1        0.1340
     29 C         138.5943  137.8259  165.4504 C.3     1  UNL1        0.0521
     30 C         138.7064  139.0457  164.5846 C.ar    1  UNL1        0.0593
     31 C         139.4396  138.9732  163.2780 C.ar    1  UNL1        0.0147
     32 C         139.5516  140.1931  162.4122 C.ar    1  UNL1        0.0028
     33 C         138.9305  141.4853  162.8531 C.ar    1  UNL1        0.0206
     34 C         139.0426  142.7051  161.9874 C.ar    1  UNL1        0.0374
     35 C         138.4215  143.9974  162.4282 C.ar    1  UNL1        0.0031
     36 C         137.6884  144.0697  163.7348 C.ar    1  UNL1        0.0016
     37 C         137.5763  142.8499  164.6006 C.ar    1  UNL1        0.0191
     38 C         138.1974  141.5577  164.1597 C.ar    1  UNL1        0.0810
     39 N         138.0853  140.3379  165.0255 N.ar    1  UNL1       -0.2497
@<TRIPOS>BOND
     1    29    30    1
     2    30    31   ar
     3    31    32   ar
     4    32    33   ar
     5    33    34   ar
     6    34    23    1
     7    23    24   ar
     8    24    25   ar
     9    25    26   ar
    10    26    22    1
    11    22    21    1
    12    21     1    1
    13     1     2    1
    14     2     3    1
    15     3     4    1
    16     4     5    1
    17     5     6   ar
    18     6     7   ar
    19     7     8   ar
    20     8     9   ar
    21     9    17    1
    22    17    18    1
    23    17    19    1
    24    17    20    1
    25     9    10   ar
    26    10    11   ar
    27    11    12   ar
    28    12    13    1
    29    12    14   ar
    30    14    15    1
    31    15    16    1
    32    26    27   ar
    33    27    28    1
    34    34    35   ar
    35    35    36   ar
    36    36    37   ar
    37    37    38   ar
    38    38    39   ar
    39    39    30   ar
    40    38    33   ar
    41    27    23   ar
    42    16     2    1
    43    14     5   ar
    44    11     7   ar
