@<TRIPOS>MOLECULE
*****
 31 35 0 0 0
SMALL
GASTEIGER

@<TRIPOS>ATOM
      1 N         140.2024  144.5404  161.6925 N.3     1  UNL1       -0.2690
      2 C         141.0070  144.8469  162.9207 C.3     1  UNL1        0.0724
      3 C         140.8609  143.9932  164.1453 C.3     1  UNL1        0.0175
      4 C         139.9101  142.8330  164.1418 C.3     1  UNL1        0.0060
      5 C         139.1055  142.5265  162.9136 C.3     1  UNL1        0.0175
      6 C         139.2516  143.3802  161.6889 C.3     1  UNL1        0.0724
      7 C         140.7148  143.1395  165.3701 C.3     1  UNL1        0.0217
      8 C         140.5687  142.2858  166.5947 C.3     1  UNL1        0.0937
      9 N         139.6179  141.1256  166.5912 N.am    1  UNL1       -0.2761
     10 C         139.4718  140.2719  167.8159 C.2     1  UNL1        0.2491
     11 O         138.5210  139.1117  167.8124 O.2     1  UNL1       -0.2699
     12 C         138.8132  140.8191  165.3630 C.3     1  UNL1        0.0937
     13 C         138.9593  141.6728  164.1382 C.3     1  UNL1        0.0217
     14 C         140.2765  140.5784  169.0441 C.ar    1  UNL1        0.0567
     15 C         141.5761  139.8693  169.2856 C.ar    1  UNL1        0.0252
     16 C         142.3807  140.1758  170.5138 C.ar    1  UNL1        0.0990
     17 N         141.8858  141.1914  171.5006 N.ar    1  UNL1       -0.2423
     18 C         140.5862  141.9004  171.2592 C.ar    1  UNL1        0.0990
     19 C         139.7815  141.5939  170.0309 C.ar    1  UNL1        0.0252
     20 C         140.3485  145.3941  160.4677 C.3     1  UNL1        0.0989
     21 C         139.0140  147.6134  156.0433 C.3     1  UNL1        0.0439
     22 C         140.1191  146.6045  155.9406 C.3     1  UNL1        0.1374
     23 C         140.0893  146.9533  154.4821 C.3     1  UNL1        0.0439
     24 C         139.9179  146.4666  157.4207 C.3     1  UNL1        0.0691
     25 C         140.8925  145.4453  157.9277 C.ar    1  UNL1        0.0126
     26 C         141.1520  144.9008  159.3012 C.ar    1  UNL1       -0.0071
     27 C         142.2152  143.8630  159.5079 C.ar    1  UNL1       -0.0030
     28 C         143.0187  143.3697  158.3413 C.ar    1  UNL1        0.0028
     29 C         142.7592  143.9142  156.9679 C.ar    1  UNL1        0.0365
     30 C         141.6960  144.9520  156.7612 C.ar    1  UNL1        0.1340
     31 O         141.2181  145.6684  155.5331 O.3     1  UNL1       -0.4826
@<TRIPOS>BOND
     1    21    22    1
     2    22    23    1
     3    22    24    1
     4    24    25    1
     5    25    26   ar
     6    26    20    1
     7    20     1    1
     8     1     2    1
     9     2     3    1
    10     3     4    1
    11     4     5    1
    12     5     6    1
    13     4     7    1
    14     7     8    1
    15     8     9    1
    16     9    10   am
    17    10    11    2
    18    10    14    1
    19    14    15   ar
    20    15    16   ar
    21    16    17   ar
    22    17    18   ar
    23    18    19   ar
    24     9    12    1
    25    12    13    1
    26    26    27   ar
    27    27    28   ar
    28    28    29   ar
    29    29    30   ar
    30    30    31    1
    31    31    22    1
    32    30    25   ar
    33     6     1    1
    34    19    14   ar
    35    13     4    1
@<TRIPOS>MOLECULE
*****
 31 35 0 0 0
SMALL
GASTEIGER

@<TRIPOS>ATOM
      1 N         142.5916  138.0566  161.5418 N.3     1  UNL1       -0.2690
      2 C         143.3745  138.8825  162.5191 C.3     1  UNL1        0.0724
      3 C         142.7702  139.2533  163.8409 C.3     1  UNL1        0.0175
      4 C         141.3830  138.7983  164.1854 C.3     1  UNL1        0.0060
      5 C         140.6002  137.9724  163.2082 C.3     1  UNL1        0.0175
      6 C         141.2045  137.6016  161.8864 C.3     1  UNL1        0.0724
      7 C         142.1659  139.6242  165.1628 C.3     1  UNL1        0.0217
      8 C         141.5616  139.9950  166.4846 C.3     1  UNL1        0.0937
      9 N         140.1744  139.5400  166.8292 N.am    1  UNL1       -0.2761
     10 C         139.5701  139.9109  168.1511 C.2     1  UNL1        0.2491
     11 O         138.1829  139.4558  168.4956 O.2     1  UNL1       -0.2699
     12 C         139.3916  138.7141  165.8519 C.3     1  UNL1        0.0937
     13 C         139.9959  138.3433  164.5300 C.3     1  UNL1        0.0217
     14 C         140.3530  140.7367  169.1283 C.ar    1  UNL1        0.0567
     15 C         140.3197  142.2338  169.0410 C.ar    1  UNL1        0.0252
     16 C         141.1025  143.0596  170.0183 C.ar    1  UNL1        0.0990
     17 N         141.9187  142.3884  171.0829 N.ar    1  UNL1       -0.2423
     18 C         141.9520  140.8913  171.1702 C.ar    1  UNL1        0.0990
     19 C         141.1691  140.0655  170.1929 C.ar    1  UNL1        0.0252
     20 C         143.1959  137.6858  160.2199 C.3     1  UNL1        0.0989
     21 C         143.4970  134.4073  156.2902 C.3     1  UNL1        0.0439
     22 C         142.8613  135.7275  155.9695 C.3     1  UNL1        0.1374
     23 C         142.7286  135.1508  154.5912 C.3     1  UNL1        0.0439
     24 C         143.1270  136.0283  157.4149 C.3     1  UNL1        0.0691
     25 C         142.6277  137.4138  157.6994 C.ar    1  UNL1        0.0126
     26 C         142.6217  138.2414  158.9505 C.ar    1  UNL1       -0.0071
     27 C         142.0415  139.6245  158.9320 C.ar    1  UNL1       -0.0030
     28 C         141.4673  140.1801  157.6625 C.ar    1  UNL1        0.0028
     29 C         141.4732  139.3525  156.4115 C.ar    1  UNL1        0.0365
     30 C         142.0534  137.9694  156.4299 C.ar    1  UNL1        0.1340
     31 O         142.1978  136.9272  155.3608 O.3     1  UNL1       -0.4826
@<TRIPOS>BOND
     1    21    22    1
     2    22    23    1
     3    22    24    1
     4    24    25    1
     5    25    26   ar
     6    26    20    1
     7    20     1    1
     8     1     2    1
     9     2     3    1
    10     3     4    1
    11     4     5    1
    12     5     6    1
    13     4     7    1
    14     7     8    1
    15     8     9    1
    16     9    10   am
    17    10    11    2
    18    10    14    1
    19    14    15   ar
    20    15    16   ar
    21    16    17   ar
    22    17    18   ar
    23    18    19   ar
    24     9    12    1
    25    12    13    1
    26    26    27   ar
    27    27    28   ar
    28    28    29   ar
    29    29    30   ar
    30    30    31    1
    31    31    22    1
    32    30    25   ar
    33     6     1    1
    34    19    14   ar
    35    13     4    1
@<TRIPOS>MOLECULE
*****
 31 35 0 0 0
SMALL
GASTEIGER

@<TRIPOS>ATOM
      1 N         139.0372  141.3139  160.4668 N.3     1  UNL1       -0.2690
      2 C         138.6522  139.9482  159.9806 C.3     1  UNL1        0.0724
      3 C         139.5910  139.1713  159.1059 C.3     1  UNL1        0.0175
      4 C         140.9147  139.7602  158.7173 C.3     1  UNL1        0.0060
      5 C         141.2996  141.1260  159.2035 C.3     1  UNL1        0.0175
      6 C         140.3609  141.9029  160.0782 C.3     1  UNL1        0.0724
      7 C         140.5297  138.3944  158.2311 C.3     1  UNL1        0.0217
      8 C         141.4685  137.6175  157.3563 C.3     1  UNL1        0.0937
      9 N         142.7922  138.2064  156.9677 N.am    1  UNL1       -0.2761
     10 C         143.7309  137.4295  156.0929 C.2     1  UNL1        0.2491
     11 O         145.0546  138.0184  155.7044 O.2     1  UNL1       -0.2699
     12 C         143.1771  139.5722  157.4539 C.3     1  UNL1        0.0937
     13 C         142.2384  140.3492  158.3287 C.3     1  UNL1        0.0217
     14 C         143.3460  136.0637  155.6068 C.ar    1  UNL1        0.0567
     15 C         142.5977  135.9105  154.3158 C.ar    1  UNL1        0.0252
     16 C         142.2127  134.5447  153.8296 C.ar    1  UNL1        0.0990
     17 N         142.5760  133.3321  154.6344 N.ar    1  UNL1       -0.2423
     18 C         143.3243  133.4853  155.9254 C.ar    1  UNL1        0.0990
     19 C         143.7093  134.8512  156.4116 C.ar    1  UNL1        0.0252
     20 C         138.0985  142.0909  161.3416 C.3     1  UNL1        0.0989
     21 C         138.4747  138.6910  165.1602 C.3     1  UNL1        0.0439
     22 C         138.8739  140.0927  165.5151 C.3     1  UNL1        0.1374
     23 C         139.1390  139.5063  166.8701 C.3     1  UNL1        0.0439
     24 C         138.5255  140.3860  164.0859 C.3     1  UNL1        0.0691
     25 C         138.7648  141.8463  163.8408 C.ar    1  UNL1        0.0126
     26 C         138.5948  142.7001  162.6192 C.ar    1  UNL1       -0.0071
     27 C         138.9213  144.1631  162.6753 C.ar    1  UNL1       -0.0030
     28 C         139.4177  144.7723  163.9531 C.ar    1  UNL1        0.0028
     29 C         139.5876  143.9185  165.1746 C.ar    1  UNL1        0.0365
     30 C         139.2612  142.4556  165.1185 C.ar    1  UNL1        0.1340
     31 O         139.3286  141.3717  166.1532 O.3     1  UNL1       -0.4826
@<TRIPOS>BOND
     1    21    22    1
     2    22    23    1
     3    22    24    1
     4    24    25    1
     5    25    26   ar
     6    26    20    1
     7    20     1    1
     8     1     2    1
     9     2     3    1
    10     3     4    1
    11     4     5    1
    12     5     6    1
    13     4     7    1
    14     7     8    1
    15     8     9    1
    16     9    10   am
    17    10    11    2
    18    10    14    1
    19    14    15   ar
    20    15    16   ar
    21    16    17   ar
    22    17    18   ar
    23    18    19   ar
    24     9    12    1
    25    12    13    1
    26    26    27   ar
    27    27    28   ar
    28    28    29   ar
    29    29    30   ar
    30    30    31    1
    31    31    22    1
    32    30    25   ar
    33     6     1    1
    34    19    14   ar
    35    13     4    1
@<TRIPOS>MOLECULE
*****
 31 35 0 0 0
SMALL
GASTEIGER

@<TRIPOS>ATOM
      1 N         138.5449  139.1027  165.5437 N.3     1  UNL1       -0.2690
      2 C         138.0453  140.3440  164.8660 C.3     1  UNL1        0.0724
      3 C         138.0991  140.4556  163.3711 C.3     1  UNL1        0.0175
      4 C         138.6526  139.3260  162.5541 C.3     1  UNL1        0.0060
      5 C         139.1522  138.0847  163.2319 C.3     1  UNL1        0.0175
      6 C         139.0984  137.9730  164.7267 C.3     1  UNL1        0.0724
      7 C         138.1529  140.5673  161.8762 C.3     1  UNL1        0.0217
      8 C         138.2067  140.6790  160.3814 C.3     1  UNL1        0.0937
      9 N         138.7602  139.5494  159.5643 N.am    1  UNL1       -0.2761
     10 C         138.8140  139.6611  158.0694 C.2     1  UNL1        0.2491
     11 O         139.3675  138.5314  157.2523 O.2     1  UNL1       -0.2699
     12 C         139.2598  138.3080  160.2421 C.3     1  UNL1        0.0937
     13 C         139.2060  138.1963  161.7370 C.3     1  UNL1        0.0217
     14 C         138.3144  140.9024  157.3916 C.ar    1  UNL1        0.0567
     15 C         139.1922  142.1158  157.3070 C.ar    1  UNL1        0.0252
     16 C         138.6925  143.3571  156.6292 C.ar    1  UNL1        0.0990
     17 N         137.3150  143.3851  156.0360 N.ar    1  UNL1       -0.2423
     18 C         136.4372  142.1717  156.1206 C.ar    1  UNL1        0.0990
     19 C         136.9370  140.9303  156.7985 C.ar    1  UNL1        0.0252
     20 C         138.4911  138.9909  167.0387 C.3     1  UNL1        0.0989
     21 C         142.5670  140.9230  164.6022 C.3     1  UNL1        0.0439
     22 C         142.3882  141.3944  166.0149 C.3     1  UNL1        0.1374
     23 C         143.6332  142.1854  165.7420 C.3     1  UNL1        0.0439
     24 C         141.1806  140.5049  165.9924 C.3     1  UNL1        0.0691
     25 C         140.5158  140.5921  167.3341 C.ar    1  UNL1        0.0126
     26 C         139.2878  139.9342  167.8904 C.ar    1  UNL1       -0.0071
     27 C         138.8565  140.2198  169.2984 C.ar    1  UNL1       -0.0030
     28 C         139.6532  141.1631  170.1501 C.ar    1  UNL1        0.0028
     29 C         140.8811  141.8209  169.5939 C.ar    1  UNL1        0.0365
     30 C         141.3124  141.5354  168.1859 C.ar    1  UNL1        0.1340
     31 O         142.4697  142.0313  167.3705 O.3     1  UNL1       -0.4826
@<TRIPOS>BOND
     1    21    22    1
     2    22    23    1
     3    22    24    1
     4    24    25    1
     5    25    26   ar
     6    26    20    1
     7    20     1    1
     8     1     2    1
     9     2     3    1
    10     3     4    1
    11     4     5    1
    12     5     6    1
    13     4     7    1
    14     7     8    1
    15     8     9    1
    16     9    10   am
    17    10    11    2
    18    10    14    1
    19    14    15   ar
    20    15    16   ar
    21    16    17   ar
    22    17    18   ar
    23    18    19   ar
    24     9    12    1
    25    12    13    1
    26    26    27   ar
    27    27    28   ar
    28    28    29   ar
    29    29    30   ar
    30    30    31    1
    31    31    22    1
    32    30    25   ar
    33     6     1    1
    34    19    14   ar
    35    13     4    1
@<TRIPOS>MOLECULE
*****
 31 35 0 0 0
SMALL
GASTEIGER

@<TRIPOS>ATOM
      1 N         143.1861  139.8834  160.7145 N.3     1  UNL1       -0.2690
      2 C         142.8092  141.1418  161.4385 C.3     1  UNL1        0.0724
      3 C         142.7109  141.1451  162.9353 C.3     1  UNL1        0.0175
      4 C         142.9896  139.8900  163.7080 C.3     1  UNL1        0.0060
      5 C         143.3666  138.6316  162.9839 C.3     1  UNL1        0.0175
      6 C         143.4649  138.6283  161.4872 C.3     1  UNL1        0.0724
      7 C         142.6126  141.1484  164.4321 C.3     1  UNL1        0.0217
      8 C         142.5144  141.1517  165.9288 C.3     1  UNL1        0.0937
      9 N         142.7931  139.8966  166.7015 N.am    1  UNL1       -0.2761
     10 C         142.6948  139.9000  168.1984 C.2     1  UNL1        0.2491
     11 O         142.9736  138.6449  168.9711 O.2     1  UNL1       -0.2699
     12 C         143.1701  138.6382  165.9775 C.3     1  UNL1        0.0937
     13 C         143.2684  138.6349  164.4807 C.3     1  UNL1        0.0217
     14 C         142.3178  141.1583  168.9224 C.ar    1  UNL1        0.0567
     15 C         143.3541  141.9167  169.6978 C.ar    1  UNL1        0.0252
     16 C         142.9771  143.1750  170.4218 C.ar    1  UNL1        0.0990
     17 N         141.5638  143.6752  170.3705 N.ar    1  UNL1       -0.2423
     18 C         140.5276  142.9169  169.5952 C.ar    1  UNL1        0.0990
     19 C         140.9046  141.6584  168.8711 C.ar    1  UNL1        0.0252
     20 C         143.2844  139.8800  159.2177 C.3     1  UNL1        0.0989
     21 C         138.6867  142.0960  158.7349 C.3     1  UNL1        0.0439
     22 C         138.8282  140.7692  158.0496 C.3     1  UNL1        0.1374
     23 C         137.4022  141.0022  157.6471 C.3     1  UNL1        0.0439
     24 C         140.2248  140.8136  158.5954 C.3     1  UNL1        0.0691
     25 C         140.9312  139.5629  158.1632 C.ar    1  UNL1        0.0126
     26 C         142.3246  139.0627  158.4048 C.ar    1  UNL1       -0.0071
     27 C         142.7581  137.7452  157.8337 C.ar    1  UNL1       -0.0030
     28 C         141.7982  136.9279  157.0208 C.ar    1  UNL1        0.0028
     29 C         140.4049  137.4281  156.7792 C.ar    1  UNL1        0.0365
     30 C         139.9714  138.7456  157.3504 C.ar    1  UNL1        0.1340
     31 O         138.6717  139.4911  157.2802 O.3     1  UNL1       -0.4826
@<TRIPOS>BOND
     1    21    22    1
     2    22    23    1
     3    22    24    1
     4    24    25    1
     5    25    26   ar
     6    26    20    1
     7    20     1    1
     8     1     2    1
     9     2     3    1
    10     3     4    1
    11     4     5    1
    12     5     6    1
    13     4     7    1
    14     7     8    1
    15     8     9    1
    16     9    10   am
    17    10    11    2
    18    10    14    1
    19    14    15   ar
    20    15    16   ar
    21    16    17   ar
    22    17    18   ar
    23    18    19   ar
    24     9    12    1
    25    12    13    1
    26    26    27   ar
    27    27    28   ar
    28    28    29   ar
    29    29    30   ar
    30    30    31    1
    31    31    22    1
    32    30    25   ar
    33     6     1    1
    34    19    14   ar
    35    13     4    1
@<TRIPOS>MOLECULE
*****
 31 35 0 0 0
SMALL
GASTEIGER

@<TRIPOS>ATOM
      1 N         139.8548  142.1939  159.8794 N.3     1  UNL1       -0.2690
      2 C         139.3339  140.7873  159.8755 C.3     1  UNL1        0.0724
      3 C         140.0765  139.7146  159.1354 C.3     1  UNL1        0.0175
      4 C         141.3401  140.0485  158.3993 C.3     1  UNL1        0.0060
      5 C         141.8610  141.4551  158.4032 C.3     1  UNL1        0.0175
      6 C         141.1184  142.5278  159.1433 C.3     1  UNL1        0.0724
      7 C         140.8192  138.6418  158.3953 C.3     1  UNL1        0.0217
      8 C         141.5619  137.5691  157.6553 C.3     1  UNL1        0.0937
      9 N         142.8254  137.9030  156.9191 N.am    1  UNL1       -0.2761
     10 C         143.5681  136.8302  156.1790 C.2     1  UNL1        0.2491
     11 O         144.8317  137.1642  155.4429 O.2     1  UNL1       -0.2699
     12 C         143.3463  139.3096  156.9231 C.3     1  UNL1        0.0937
     13 C         142.6037  140.3824  157.6631 C.3     1  UNL1        0.0217
     14 C         143.0472  135.4236  156.1751 C.ar    1  UNL1        0.0567
     15 C         141.9320  135.0394  155.2484 C.ar    1  UNL1        0.0252
     16 C         141.4111  133.6328  155.2445 C.ar    1  UNL1        0.0990
     17 N         142.0053  132.6103  156.1673 N.ar    1  UNL1       -0.2423
     18 C         143.1206  132.9945  157.0939 C.ar    1  UNL1        0.0990
     19 C         143.6415  134.4012  157.0978 C.ar    1  UNL1        0.0252
     20 C         139.1121  143.2667  160.6195 C.3     1  UNL1        0.0989
     21 C         143.7831  144.1479  162.5399 C.3     1  UNL1        0.0439
     22 C         142.6994  143.9670  163.5612 C.3     1  UNL1        0.1374
     23 C         143.8089  144.1848  164.5468 C.3     1  UNL1        0.0439
     24 C         141.8164  143.7870  162.3620 C.3     1  UNL1        0.0691
     25 C         140.4191  143.5403  162.8482 C.ar    1  UNL1        0.0126
     26 C         139.1315  143.2942  162.1191 C.ar    1  UNL1       -0.0071
     27 C         137.8632  143.0756  162.8897 C.ar    1  UNL1       -0.0030
     28 C         137.8826  143.1032  164.3893 C.ar    1  UNL1        0.0028
     29 C         139.1701  143.3493  165.1184 C.ar    1  UNL1        0.0365
     30 C         140.4384  143.5679  164.3478 C.ar    1  UNL1        0.1340
     31 O         141.8477  143.8315  164.7884 O.3     1  UNL1       -0.4826
@<TRIPOS>BOND
     1    21    22    1
     2    22    23    1
     3    22    24    1
     4    24    25    1
     5    25    26   ar
     6    26    20    1
     7    20     1    1
     8     1     2    1
     9     2     3    1
    10     3     4    1
    11     4     5    1
    12     5     6    1
    13     4     7    1
    14     7     8    1
    15     8     9    1
    16     9    10   am
    17    10    11    2
    18    10    14    1
    19    14    15   ar
    20    15    16   ar
    21    16    17   ar
    22    17    18   ar
    23    18    19   ar
    24     9    12    1
    25    12    13    1
    26    26    27   ar
    27    27    28   ar
    28    28    29   ar
    29    29    30   ar
    30    30    31    1
    31    31    22    1
    32    30    25   ar
    33     6     1    1
    34    19    14   ar
    35    13     4    1
@<TRIPOS>MOLECULE
*****
 31 35 0 0 0
SMALL
GASTEIGER

@<TRIPOS>ATOM
      1 N         138.7640  140.1273  164.1999 N.3     1  UNL1       -0.2690
      2 C         138.1271  139.1485  163.2585 C.3     1  UNL1        0.0724
      3 C         137.9276  139.5148  161.8177 C.3     1  UNL1        0.0175
      4 C         138.3651  140.8598  161.3183 C.3     1  UNL1        0.0060
      5 C         139.0020  141.8386  162.2597 C.3     1  UNL1        0.0175
      6 C         139.2015  141.4723  163.7005 C.3     1  UNL1        0.0724
      7 C         137.7282  139.8810  160.3768 C.3     1  UNL1        0.0217
      8 C         137.5288  140.2473  158.9360 C.3     1  UNL1        0.0937
      9 N         137.9663  141.5923  158.4365 N.am    1  UNL1       -0.2761
     10 C         137.7668  141.9586  156.9956 C.2     1  UNL1        0.2491
     11 O         138.2043  143.3036  156.4962 O.2     1  UNL1       -0.2699
     12 C         138.6032  142.5711  159.3779 C.3     1  UNL1        0.0937
     13 C         138.8026  142.2049  160.8189 C.3     1  UNL1        0.0217
     14 C         137.1299  140.9798  156.0542 C.ar    1  UNL1        0.0567
     15 C         135.6372  140.9385  155.9120 C.ar    1  UNL1        0.0252
     16 C         135.0003  139.9597  154.9706 C.ar    1  UNL1        0.0990
     17 N         135.8561  139.0221  154.1714 N.ar    1  UNL1       -0.2423
     18 C         137.3488  139.0634  154.3136 C.ar    1  UNL1        0.0990
     19 C         137.9857  140.0423  155.2550 C.ar    1  UNL1        0.0252
     20 C         138.9634  139.7610  165.6409 C.3     1  UNL1        0.0989
     21 C         139.6743  141.6797  170.3414 C.3     1  UNL1        0.0439
     22 C         140.8663  140.9870  169.7504 C.3     1  UNL1        0.1374
     23 C         141.5250  141.3534  171.0473 C.3     1  UNL1        0.0439
     24 C         139.9584  140.7654  168.5771 C.3     1  UNL1        0.0691
     25 C         140.7270  140.0124  167.5321 C.ar    1  UNL1        0.0126
     26 C         140.3463  139.5172  166.1682 C.ar    1  UNL1       -0.0071
     27 C         141.3485  138.7782  165.3319 C.ar    1  UNL1       -0.0030
     28 C         142.7314  138.5344  165.8594 C.ar    1  UNL1        0.0028
     29 C         143.1121  139.0296  167.2231 C.ar    1  UNL1        0.0365
     30 C         142.1099  139.7686  168.0594 C.ar    1  UNL1        0.1340
     31 O         142.1959  140.3709  169.4305 O.3     1  UNL1       -0.4826
@<TRIPOS>BOND
     1    21    22    1
     2    22    23    1
     3    22    24    1
     4    24    25    1
     5    25    26   ar
     6    26    20    1
     7    20     1    1
     8     1     2    1
     9     2     3    1
    10     3     4    1
    11     4     5    1
    12     5     6    1
    13     4     7    1
    14     7     8    1
    15     8     9    1
    16     9    10   am
    17    10    11    2
    18    10    14    1
    19    14    15   ar
    20    15    16   ar
    21    16    17   ar
    22    17    18   ar
    23    18    19   ar
    24     9    12    1
    25    12    13    1
    26    26    27   ar
    27    27    28   ar
    28    28    29   ar
    29    29    30   ar
    30    30    31    1
    31    31    22    1
    32    30    25   ar
    33     6     1    1
    34    19    14   ar
    35    13     4    1
@<TRIPOS>MOLECULE
*****
 31 35 0 0 0
SMALL
GASTEIGER

@<TRIPOS>ATOM
      1 N         138.5657  141.8820  160.6958 N.3     1  UNL1       -0.2690
      2 C         139.5794  142.7105  161.4278 C.3     1  UNL1        0.0724
      3 C         139.8347  142.4678  162.8858 C.3     1  UNL1        0.0175
      4 C         139.0762  141.3966  163.6119 C.3     1  UNL1        0.0060
      5 C         138.0624  140.5681  162.8799 C.3     1  UNL1        0.0175
      6 C         137.8072  140.8108  161.4219 C.3     1  UNL1        0.0724
      7 C         140.0900  142.2251  164.3439 C.3     1  UNL1        0.0217
      8 C         140.3452  141.9824  165.8020 C.3     1  UNL1        0.0937
      9 N         139.5867  140.9112  166.5280 N.am    1  UNL1       -0.2761
     10 C         139.8420  140.6685  167.9861 C.2     1  UNL1        0.2491
     11 O         139.0835  139.5973  168.7122 O.2     1  UNL1       -0.2699
     12 C         138.5729  140.0827  165.7961 C.3     1  UNL1        0.0937
     13 C         138.3176  140.3254  164.3379 C.3     1  UNL1        0.0217
     14 C         140.8558  141.4970  168.7181 C.ar    1  UNL1        0.0567
     15 C         142.2798  141.0342  168.8066 C.ar    1  UNL1        0.0252
     16 C         143.2936  141.8627  169.5386 C.ar    1  UNL1        0.0990
     17 N         142.8833  143.1541  170.1821 N.ar    1  UNL1       -0.2423
     18 C         141.4593  143.6169  170.0936 C.ar    1  UNL1        0.0990
     19 C         140.4455  142.7883  169.3616 C.ar    1  UNL1        0.0252
     20 C         138.3104  142.1247  159.2377 C.3     1  UNL1        0.0989
     21 C         134.8062  141.0335  155.6583 C.3     1  UNL1        0.0439
     22 C         136.1195  140.3265  155.4989 C.3     1  UNL1        0.1374
     23 C         135.4677  139.7206  154.2914 C.3     1  UNL1        0.0439
     24 C         136.4967  141.0801  156.7398 C.3     1  UNL1        0.0691
     25 C         137.9068  140.7122  157.0948 C.ar    1  UNL1        0.0126
     26 C         138.8047  141.1437  158.2163 C.ar    1  UNL1       -0.0071
     27 C         140.1968  140.5943  158.3164 C.ar    1  UNL1       -0.0030
     28 C         140.6912  139.6133  157.2949 C.ar    1  UNL1        0.0028
     29 C         139.7933  139.1817  156.1735 C.ar    1  UNL1        0.0365
     30 C         138.4012  139.7312  156.0734 C.ar    1  UNL1        0.1340
     31 O         137.2965  139.4928  155.0871 O.3     1  UNL1       -0.4826
@<TRIPOS>BOND
     1    21    22    1
     2    22    23    1
     3    22    24    1
     4    24    25    1
     5    25    26   ar
     6    26    20    1
     7    20     1    1
     8     1     2    1
     9     2     3    1
    10     3     4    1
    11     4     5    1
    12     5     6    1
    13     4     7    1
    14     7     8    1
    15     8     9    1
    16     9    10   am
    17    10    11    2
    18    10    14    1
    19    14    15   ar
    20    15    16   ar
    21    16    17   ar
    22    17    18   ar
    23    18    19   ar
    24     9    12    1
    25    12    13    1
    26    26    27   ar
    27    27    28   ar
    28    28    29   ar
    29    29    30   ar
    30    30    31    1
    31    31    22    1
    32    30    25   ar
    33     6     1    1
    34    19    14   ar
    35    13     4    1
@<TRIPOS>MOLECULE
*****
 31 35 0 0 0
SMALL
GASTEIGER

@<TRIPOS>ATOM
      1 N         139.9126  139.2442  160.6104 N.3     1  UNL1       -0.2690
      2 C         141.0129  139.9562  161.3401 C.3     1  UNL1        0.0724
      3 C         140.9514  140.1026  162.8316 C.3     1  UNL1        0.0175
      4 C         139.7896  139.5371  163.5935 C.3     1  UNL1        0.0060
      5 C         138.6893  138.8252  162.8638 C.3     1  UNL1        0.0175
      6 C         138.7508  138.6787  161.3722 C.3     1  UNL1        0.0724
      7 C         140.8899  140.2491  164.3232 C.3     1  UNL1        0.0217
      8 C         140.8283  140.3955  165.8148 C.3     1  UNL1        0.0937
      9 N         139.6665  139.8300  166.5766 N.am    1  UNL1       -0.2761
     10 C         139.6050  139.9765  168.0682 C.2     1  UNL1        0.2491
     11 O         138.4432  139.4110  168.8301 O.2     1  UNL1       -0.2699
     12 C         138.5663  139.1181  165.8469 C.3     1  UNL1        0.0937
     13 C         138.6278  138.9716  164.3553 C.3     1  UNL1        0.0217
     14 C         140.7053  140.6885  168.7979 C.ar    1  UNL1        0.0567
     15 C         141.8918  139.9203  169.3000 C.ar    1  UNL1        0.0252
     16 C         142.9921  140.6323  170.0297 C.ar    1  UNL1        0.0990
     17 N         142.9059  142.1125  170.2573 N.ar    1  UNL1       -0.2423
     18 C         141.7194  142.8806  169.7552 C.ar    1  UNL1        0.0990
     19 C         140.6190  142.1686  169.0255 C.ar    1  UNL1        0.0252
     20 C         139.9741  139.0977  159.1188 C.3     1  UNL1        0.0989
     21 C         142.6484  135.4819  156.6579 C.3     1  UNL1        0.0439
     22 C         143.1660  136.8798  156.4911 C.3     1  UNL1        0.1374
     23 C         144.2121  136.2227  155.6402 C.3     1  UNL1        0.0439
     24 C         142.0117  137.2447  157.3768 C.3     1  UNL1        0.0691
     25 C         142.0347  138.7307  157.5795 C.ar    1  UNL1        0.0126
     26 C         141.1425  139.6513  158.3583 C.ar    1  UNL1       -0.0071
     27 C         141.4188  141.1255  158.3767 C.ar    1  UNL1       -0.0030
     28 C         142.5873  141.6791  157.6162 C.ar    1  UNL1        0.0028
     29 C         143.4794  140.7585  156.8374 C.ar    1  UNL1        0.0365
     30 C         143.2031  139.2843  156.8191 C.ar    1  UNL1        0.1340
     31 O         143.9023  138.1403  156.1464 O.3     1  UNL1       -0.4826
@<TRIPOS>BOND
     1    21    22    1
     2    22    23    1
     3    22    24    1
     4    24    25    1
     5    25    26   ar
     6    26    20    1
     7    20     1    1
     8     1     2    1
     9     2     3    1
    10     3     4    1
    11     4     5    1
    12     5     6    1
    13     4     7    1
    14     7     8    1
    15     8     9    1
    16     9    10   am
    17    10    11    2
    18    10    14    1
    19    14    15   ar
    20    15    16   ar
    21    16    17   ar
    22    17    18   ar
    23    18    19   ar
    24     9    12    1
    25    12    13    1
    26    26    27   ar
    27    27    28   ar
    28    28    29   ar
    29    29    30   ar
    30    30    31    1
    31    31    22    1
    32    30    25   ar
    33     6     1    1
    34    19    14   ar
    35    13     4    1
