@<TRIPOS>MOLECULE
*****
 32 35 0 0 0
SMALL
GASTEIGER

@<TRIPOS>ATOM
      1 C         141.7829  143.0904  163.4495 C.3     1  UNL1        0.1753
      2 C         141.6600  143.6843  162.0776 C.ar    1  UNL1        0.0089
      3 C         142.5393  143.6006  160.8652 C.ar    1  UNL1       -0.0021
      4 C         142.1500  144.3160  159.6056 C.ar    1  UNL1       -0.0003
      5 C         140.8815  145.1151  159.5584 C.ar    1  UNL1        0.0001
      6 C         140.0022  145.1988  160.7707 C.ar    1  UNL1        0.0043
      7 C         140.3915  144.4834  162.0303 C.ar    1  UNL1        0.0517
      8 C         139.7304  144.3834  163.3731 C.2     1  UNL1        0.2496
      9 O         138.4365  145.0306  163.7692 O.2     1  UNL1       -0.2699
     10 N         140.5904  143.5225  164.2502 N.am    1  UNL1       -0.2620
     11 N         142.8694  140.7410  163.6736 N.am    1  UNL1       -0.3059
     12 C         142.9020  142.2177  163.9354 C.2     1  UNL1        0.2448
     13 O         144.0535  142.8215  164.6832 O.2     1  UNL1       -0.2729
     14 H         142.1136  140.3446  163.1828 H       1  UNL1        0.1494
     15 C         144.7839  140.2058  162.9334 C.3     1  UNL1        0.0196
     16 C         143.9885  139.8683  164.1595 C.3     1  UNL1        0.0569
     17 C         143.1929  139.5309  165.3856 C.3     1  UNL1        0.0196
     18 C         145.1074  138.9957  164.6454 C.3     1  UNL1        0.0196
     19 C         140.3074  143.1577  165.6774 C.3     1  UNL1        0.1212
     20 C         139.6956  141.8278  166.0045 C.ar    1  UNL1       -0.0022
     21 C         138.7781  141.1623  165.0219 C.ar    1  UNL1       -0.0003
     22 C         138.1663  139.8324  165.3490 C.ar    1  UNL1        0.0294
     23 C         138.4719  139.1680  166.6586 C.ar    1  UNL1        0.1401
     24 F         137.8601  137.8380  166.9857 F       1  UNL1       -0.2042
     25 C         139.3894  139.8334  167.6412 C.ar    1  UNL1        0.0294
     26 C         140.0012  141.1634  167.3141 C.ar    1  UNL1       -0.0001
     27 C         140.9187  141.8288  168.2967 C.ar    1  UNL1       -0.0002
     28 C         142.3652  141.4365  168.3566 C.ar    1  UNL1       -0.0000
     29 C         143.2827  142.1020  169.3392 C.ar    1  UNL1       -0.0000
     30 C         142.7535  143.1598  170.2618 C.ar    1  UNL1       -0.0000
     31 C         141.3070  143.5521  170.2019 C.ar    1  UNL1       -0.0000
     32 C         140.3895  142.8865  169.2192 C.ar    1  UNL1       -0.0000
@<TRIPOS>BOND
     1    15    16    1
     2    16    17    1
     3    16    18    1
     4    16    11    1
     5    11    12   am
     6    12    13    2
     7    12     1    1
     8     1     2    1
     9     2     3   ar
    10     3     4   ar
    11     4     5   ar
    12     5     6   ar
    13     6     7   ar
    14     7     8    1
    15     8     9    2
    16     8    10   am
    17    10    19    1
    18    19    20    1
    19    20    21   ar
    20    21    22   ar
    21    22    23   ar
    22    23    24    1
    23    23    25   ar
    24    25    26   ar
    25    26    27    1
    26    27    28   ar
    27    28    29   ar
    28    29    30   ar
    29    30    31   ar
    30    31    32   ar
    31    10     1    1
    32    26    20   ar
    33    32    27   ar
    34     7     2   ar
    35    11    14    1
@<TRIPOS>MOLECULE
*****
 32 35 0 0 0
SMALL
GASTEIGER

@<TRIPOS>ATOM
      1 C         141.6405  142.2273  162.9183 C.3     1  UNL1        0.1753
      2 C         141.1503  143.4363  162.1780 C.ar    1  UNL1        0.0089
      3 C         141.3194  143.8786  160.7547 C.ar    1  UNL1       -0.0021
      4 C         140.7008  145.1637  160.2902 C.ar    1  UNL1       -0.0003
      5 C         139.9131  146.0065  161.2490 C.ar    1  UNL1        0.0001
      6 C         139.7439  145.5642  162.6722 C.ar    1  UNL1        0.0043
      7 C         140.3626  144.2791  163.1367 C.ar    1  UNL1        0.0517
      8 C         140.3660  143.5909  164.4696 C.2     1  UNL1        0.2496
      9 O         139.6970  144.0843  165.7182 O.2     1  UNL1       -0.2699
     10 N         141.1558  142.3229  164.3346 N.am    1  UNL1       -0.2620
     11 N         141.8049  139.8845  161.8073 N.am    1  UNL1       -0.3059
     12 C         142.4699  141.1176  162.3432 C.2     1  UNL1        0.2448
     13 O         143.9643  141.2409  162.3041 O.2     1  UNL1       -0.2729
     14 H         140.8240  139.8035  161.8329 H       1  UNL1        0.1494
     15 C         142.7288  138.1424  162.5891 C.3     1  UNL1        0.0196
     16 C         142.6343  138.7748  161.2322 C.3     1  UNL1        0.0569
     17 C         142.5397  139.4072  159.8753 C.3     1  UNL1        0.0196
     18 C         143.4636  137.6651  160.6572 C.3     1  UNL1        0.0196
     19 C         141.4153  141.3255  165.4245 C.3     1  UNL1        0.1212
     20 C         140.2865  140.5052  165.9748 C.ar    1  UNL1       -0.0022
     21 C         139.3959  139.7356  165.0450 C.ar    1  UNL1       -0.0003
     22 C         138.2671  138.9153  165.5954 C.ar    1  UNL1        0.0294
     23 C         138.0289  138.8646  167.0755 C.ar    1  UNL1        0.1401
     24 F         136.9000  138.0442  167.6258 F       1  UNL1       -0.2042
     25 C         138.9195  139.6341  168.0052 C.ar    1  UNL1        0.0294
     26 C         140.0483  140.4545  167.4549 C.ar    1  UNL1       -0.0001
     27 C         140.9389  141.2241  168.3847 C.ar    1  UNL1       -0.0002
     28 C         140.5067  142.5654  168.8985 C.ar    1  UNL1       -0.0000
     29 C         141.3973  143.3350  169.8283 C.ar    1  UNL1       -0.0000
     30 C         142.7202  142.7633  170.2443 C.ar    1  UNL1       -0.0000
     31 C         143.1525  141.4219  169.7306 C.ar    1  UNL1       -0.0000
     32 C         142.2618  140.6524  168.8007 C.ar    1  UNL1       -0.0000
@<TRIPOS>BOND
     1    15    16    1
     2    16    17    1
     3    16    18    1
     4    16    11    1
     5    11    12   am
     6    12    13    2
     7    12     1    1
     8     1     2    1
     9     2     3   ar
    10     3     4   ar
    11     4     5   ar
    12     5     6   ar
    13     6     7   ar
    14     7     8    1
    15     8     9    2
    16     8    10   am
    17    10    19    1
    18    19    20    1
    19    20    21   ar
    20    21    22   ar
    21    22    23   ar
    22    23    24    1
    23    23    25   ar
    24    25    26   ar
    25    26    27    1
    26    27    28   ar
    27    28    29   ar
    28    29    30   ar
    29    30    31   ar
    30    31    32   ar
    31    10     1    1
    32    26    20   ar
    33    32    27   ar
    34     7     2   ar
    35    11    14    1
@<TRIPOS>MOLECULE
*****
 32 35 0 0 0
SMALL
GASTEIGER

@<TRIPOS>ATOM
      1 C         141.1135  141.7949  166.6431 C.3     1  UNL1        0.1753
      2 C         141.0704  142.0781  168.1155 C.ar    1  UNL1        0.0089
      3 C         140.4419  143.1870  168.9063 C.ar    1  UNL1       -0.0021
      4 C         140.5675  143.2068  170.4009 C.ar    1  UNL1       -0.0003
      5 C         141.3216  142.1177  171.1047 C.ar    1  UNL1        0.0001
      6 C         141.9501  141.0089  170.3139 C.ar    1  UNL1        0.0043
      7 C         141.8245  140.9891  168.8193 C.ar    1  UNL1        0.0517
      8 C         142.3336  140.0328  167.7818 C.2     1  UNL1        0.2496
      9 O         143.1405  138.7957  168.0435 O.2     1  UNL1       -0.2699
     10 N         141.8942  140.5308  166.4369 N.am    1  UNL1       -0.2620
     11 N         139.0060  142.5615  165.3313 N.am    1  UNL1       -0.3059
     12 C         140.4860  142.6293  165.5661 C.2     1  UNL1        0.2448
     13 O         141.3384  143.5314  164.7238 O.2     1  UNL1       -0.2729
     14 H         138.4465  141.9694  165.8840 H       1  UNL1        0.1494
     15 C         138.3905  144.5850  165.1685 C.3     1  UNL1        0.0196
     16 C         138.3785  143.3959  164.2542 C.3     1  UNL1        0.0569
     17 C         138.3665  142.2068  163.3400 C.3     1  UNL1        0.0196
     18 C         137.7511  144.2303  163.1772 C.3     1  UNL1        0.0196
     19 C         142.1846  139.8792  165.1174 C.3     1  UNL1        0.1212
     20 C         141.0654  139.2965  164.3063 C.ar    1  UNL1       -0.0022
     21 C         140.0350  138.4279  164.9650 C.ar    1  UNL1       -0.0003
     22 C         138.9158  137.8453  164.1538 C.ar    1  UNL1        0.0294
     23 C         138.8270  138.1312  162.6840 C.ar    1  UNL1        0.1401
     24 F         137.7078  137.5485  161.8729 F       1  UNL1       -0.2042
     25 C         139.8574  138.9998  162.0253 C.ar    1  UNL1        0.0294
     26 C         140.9766  139.5824  162.8365 C.ar    1  UNL1       -0.0001
     27 C         142.0070  140.4510  162.1778 C.ar    1  UNL1       -0.0002
     28 C         143.3792  139.9106  161.9038 C.ar    1  UNL1       -0.0000
     29 C         144.4096  140.7791  161.2451 C.ar    1  UNL1       -0.0000
     30 C         144.0678  142.1881  160.8603 C.ar    1  UNL1       -0.0000
     31 C         142.6956  142.7285  161.1343 C.ar    1  UNL1       -0.0000
     32 C         141.6652  141.8599  161.7930 C.ar    1  UNL1       -0.0000
@<TRIPOS>BOND
     1    15    16    1
     2    16    17    1
     3    16    18    1
     4    16    11    1
     5    11    12   am
     6    12    13    2
     7    12     1    1
     8     1     2    1
     9     2     3   ar
    10     3     4   ar
    11     4     5   ar
    12     5     6   ar
    13     6     7   ar
    14     7     8    1
    15     8     9    2
    16     8    10   am
    17    10    19    1
    18    19    20    1
    19    20    21   ar
    20    21    22   ar
    21    22    23   ar
    22    23    24    1
    23    23    25   ar
    24    25    26   ar
    25    26    27    1
    26    27    28   ar
    27    28    29   ar
    28    29    30   ar
    29    30    31   ar
    30    31    32   ar
    31    10     1    1
    32    26    20   ar
    33    32    27   ar
    34     7     2   ar
    35    11    14    1
@<TRIPOS>MOLECULE
*****
 32 35 0 0 0
SMALL
GASTEIGER

@<TRIPOS>ATOM
      1 C         140.6417  141.5888  162.6518 C.3     1  UNL1        0.1753
      2 C         140.5151  143.0352  162.2749 C.ar    1  UNL1        0.0089
      3 C         140.7281  143.7566  160.9772 C.ar    1  UNL1       -0.0021
      4 C         140.5211  145.2403  160.9011 C.ar    1  UNL1       -0.0003
      5 C         140.1010  146.0025  162.1228 C.ar    1  UNL1        0.0001
      6 C         139.8880  145.2811  163.4205 C.ar    1  UNL1        0.0043
      7 C         140.0951  143.7974  163.4966 C.ar    1  UNL1        0.0517
      8 C         139.9620  142.8221  164.6284 C.2     1  UNL1        0.2496
      9 O         139.5614  143.1537  166.0354 O.2     1  UNL1       -0.2699
     10 N         140.2998  141.4571  164.1063 N.am    1  UNL1       -0.2620
     11 N         142.3247  139.7314  161.9676 N.am    1  UNL1       -0.3059
     12 C         141.0402  140.4705  161.7349 C.2     1  UNL1        0.2448
     13 O         140.1543  140.0911  160.5856 O.2     1  UNL1       -0.2729
     14 H         142.9062  139.9804  162.7220 H       1  UNL1        0.1494
     15 C         143.5114  139.5784  160.2160 C.3     1  UNL1        0.0196
     16 C         142.7231  138.6131  161.0508 C.3     1  UNL1        0.0569
     17 C         141.9348  137.6479  161.8856 C.3     1  UNL1        0.0196
     18 C         143.1216  137.4948  160.1340 C.3     1  UNL1        0.0196
     19 C         140.2964  140.1840  164.8995 C.3     1  UNL1        0.1212
     20 C         140.6231  140.2114  166.3632 C.ar    1  UNL1       -0.0022
     21 C         139.5279  140.0738  167.3789 C.ar    1  UNL1       -0.0003
     22 C         139.8546  140.1012  168.8426 C.ar    1  UNL1        0.0294
     23 C         141.2765  140.2661  169.2907 C.ar    1  UNL1        0.1401
     24 F         141.6032  140.2935  170.7545 F       1  UNL1       -0.2042
     25 C         142.3718  140.4037  168.2751 C.ar    1  UNL1        0.0294
     26 C         142.0451  140.3764  166.8113 C.ar    1  UNL1       -0.0001
     27 C         143.1403  140.5140  165.7957 C.ar    1  UNL1       -0.0002
     28 C         143.5474  141.8739  165.3112 C.ar    1  UNL1       -0.0000
     29 C         144.6426  142.0115  164.2956 C.ar    1  UNL1       -0.0000
     30 C         145.3309  140.7891  163.7645 C.ar    1  UNL1       -0.0000
     31 C         144.9239  139.4291  164.2491 C.ar    1  UNL1       -0.0000
     32 C         143.8286  139.2916  165.2647 C.ar    1  UNL1       -0.0000
@<TRIPOS>BOND
     1    15    16    1
     2    16    17    1
     3    16    18    1
     4    16    11    1
     5    11    12   am
     6    12    13    2
     7    12     1    1
     8     1     2    1
     9     2     3   ar
    10     3     4   ar
    11     4     5   ar
    12     5     6   ar
    13     6     7   ar
    14     7     8    1
    15     8     9    2
    16     8    10   am
    17    10    19    1
    18    19    20    1
    19    20    21   ar
    20    21    22   ar
    21    22    23   ar
    22    23    24    1
    23    23    25   ar
    24    25    26   ar
    25    26    27    1
    26    27    28   ar
    27    28    29   ar
    28    29    30   ar
    29    30    31   ar
    30    31    32   ar
    31    10     1    1
    32    26    20   ar
    33    32    27   ar
    34     7     2   ar
    35    11    14    1
@<TRIPOS>MOLECULE
*****
 32 35 0 0 0
SMALL
GASTEIGER

@<TRIPOS>ATOM
      1 C         141.2888  141.1220  166.5244 C.3     1  UNL1        0.1753
      2 C         141.7756  140.9372  167.9311 C.ar    1  UNL1        0.0089
      3 C         143.0579  141.3212  168.6080 C.ar    1  UNL1       -0.0021
      4 C         143.2664  140.9984  170.0579 C.ar    1  UNL1       -0.0003
      5 C         142.1928  140.2914  170.8308 C.ar    1  UNL1        0.0001
      6 C         140.9105  139.9074  170.1539 C.ar    1  UNL1        0.0043
      7 C         140.7020  140.2303  168.7040 C.ar    1  UNL1        0.0517
      8 C         139.5516  139.9782  167.7750 C.2     1  UNL1        0.2496
      9 O         138.2644  139.2950  168.1307 O.2     1  UNL1       -0.2699
     10 N         139.9142  140.5294  166.4279 N.am    1  UNL1       -0.2620
     11 N         142.3276  143.2554  165.4661 N.am    1  UNL1       -0.3059
     12 C         142.0440  141.7835  165.4098 C.2     1  UNL1        0.2448
     13 O         142.5156  140.9732  164.2390 O.2     1  UNL1       -0.2729
     14 H         142.0181  143.7873  166.2346 H       1  UNL1        0.1494
     15 C         144.3750  143.6316  165.0580 C.3     1  UNL1        0.0196
     16 C         143.0828  143.9169  164.3516 C.3     1  UNL1        0.0569
     17 C         141.7906  144.2020  163.6452 C.3     1  UNL1        0.0196
     18 C         143.8380  144.5783  163.2371 C.3     1  UNL1        0.0196
     19 C         139.0535  140.4941  165.1999 C.3     1  UNL1        0.1212
     20 C         138.7372  141.7651  164.4689 C.ar    1  UNL1       -0.0022
     21 C         138.4723  143.0261  165.2370 C.ar    1  UNL1       -0.0003
     22 C         138.1561  144.2971  164.5059 C.ar    1  UNL1        0.0294
     23 C         138.1047  144.3072  163.0069 C.ar    1  UNL1        0.1401
     24 F         137.7884  145.5783  162.2758 F       1  UNL1       -0.2042
     25 C         138.3696  143.0463  162.2388 C.ar    1  UNL1        0.0294
     26 C         138.6859  141.7752  162.9698 C.ar    1  UNL1       -0.0001
     27 C         138.9508  140.5143  162.2018 C.ar    1  UNL1       -0.0002
     28 C         140.2757  140.3104  161.5287 C.ar    1  UNL1       -0.0000
     29 C         140.5406  139.0495  160.7606 C.ar    1  UNL1       -0.0000
     30 C         139.4805  137.9925  160.6656 C.ar    1  UNL1       -0.0000
     31 C         138.1556  138.1964  161.3387 C.ar    1  UNL1       -0.0000
     32 C         137.8907  139.4574  162.1067 C.ar    1  UNL1       -0.0000
@<TRIPOS>BOND
     1    15    16    1
     2    16    17    1
     3    16    18    1
     4    16    11    1
     5    11    12   am
     6    12    13    2
     7    12     1    1
     8     1     2    1
     9     2     3   ar
    10     3     4   ar
    11     4     5   ar
    12     5     6   ar
    13     6     7   ar
    14     7     8    1
    15     8     9    2
    16     8    10   am
    17    10    19    1
    18    19    20    1
    19    20    21   ar
    20    21    22   ar
    21    22    23   ar
    22    23    24    1
    23    23    25   ar
    24    25    26   ar
    25    26    27    1
    26    27    28   ar
    27    28    29   ar
    28    29    30   ar
    29    30    31   ar
    30    31    32   ar
    31    10     1    1
    32    26    20   ar
    33    32    27   ar
    34     7     2   ar
    35    11    14    1
@<TRIPOS>MOLECULE
*****
 32 35 0 0 0
SMALL
GASTEIGER

@<TRIPOS>ATOM
      1 C         142.1367  141.9333  163.1348 C.3     1  UNL1        0.1753
      2 C         142.5321  141.9668  161.6883 C.ar    1  UNL1        0.0089
      3 C         142.3413  143.0016  160.6193 C.ar    1  UNL1       -0.0021
      4 C         142.8555  142.7510  159.2327 C.ar    1  UNL1       -0.0003
      5 C         143.5606  141.4657  158.9150 C.ar    1  UNL1        0.0001
      6 C         143.7514  140.4309  159.9840 C.ar    1  UNL1        0.0043
      7 C         143.2371  140.6815  161.3706 C.ar    1  UNL1        0.0517
      8 C         143.2774  139.8537  162.6209 C.2     1  UNL1        0.2496
      9 O         143.8902  138.4913  162.7569 O.2     1  UNL1       -0.2699
     10 N         142.5973  140.6273  163.7112 N.am    1  UNL1       -0.2620
     11 N         139.9359  142.8892  164.1313 N.am    1  UNL1       -0.3059
     12 C         141.4085  143.0158  163.8750 C.2     1  UNL1        0.2448
     13 O         142.1526  144.2248  164.3589 O.2     1  UNL1       -0.2729
     14 H         139.4474  142.0957  163.8137 H       1  UNL1        0.1494
     15 C         139.6128  143.3521  166.1761 C.3     1  UNL1        0.0196
     16 C         139.2076  143.9717  164.8715 C.3     1  UNL1        0.0569
     17 C         138.8025  144.5913  163.5669 C.3     1  UNL1        0.0196
     18 C         138.4795  145.0542  165.6117 C.3     1  UNL1        0.0196
     19 C         142.4106  140.1745  165.1290 C.3     1  UNL1        0.1212
     20 C         141.0520  139.7604  165.6113 C.ar    1  UNL1       -0.0022
     21 C         140.0633  139.1686  164.6508 C.ar    1  UNL1       -0.0003
     22 C         138.7047  138.7545  165.1331 C.ar    1  UNL1        0.0294
     23 C         138.3347  138.9321  166.5759 C.ar    1  UNL1        0.1401
     24 F         136.9760  138.5179  167.0581 F       1  UNL1       -0.2042
     25 C         139.3233  139.5238  167.5363 C.ar    1  UNL1        0.0294
     26 C         140.6819  139.9380  167.0540 C.ar    1  UNL1       -0.0001
     27 C         141.6705  140.5297  168.0145 C.ar    1  UNL1       -0.0002
     28 C         142.0383  139.7871  169.2648 C.ar    1  UNL1       -0.0000
     29 C         143.0268  140.3789  170.2253 C.ar    1  UNL1       -0.0000
     30 C         143.6477  141.7133  169.9354 C.ar    1  UNL1       -0.0000
     31 C         143.2800  142.4559  168.6851 C.ar    1  UNL1       -0.0000
     32 C         142.2913  141.8641  167.7246 C.ar    1  UNL1       -0.0000
@<TRIPOS>BOND
     1    15    16    1
     2    16    17    1
     3    16    18    1
     4    16    11    1
     5    11    12   am
     6    12    13    2
     7    12     1    1
     8     1     2    1
     9     2     3   ar
    10     3     4   ar
    11     4     5   ar
    12     5     6   ar
    13     6     7   ar
    14     7     8    1
    15     8     9    2
    16     8    10   am
    17    10    19    1
    18    19    20    1
    19    20    21   ar
    20    21    22   ar
    21    22    23   ar
    22    23    24    1
    23    23    25   ar
    24    25    26   ar
    25    26    27    1
    26    27    28   ar
    27    28    29   ar
    28    29    30   ar
    29    30    31   ar
    30    31    32   ar
    31    10     1    1
    32    26    20   ar
    33    32    27   ar
    34     7     2   ar
    35    11    14    1
@<TRIPOS>MOLECULE
*****
 32 35 0 0 0
SMALL
GASTEIGER

@<TRIPOS>ATOM
      1 C         142.1467  141.1983  164.4367 C.3     1  UNL1        0.1753
      2 C         142.3221  141.2404  165.9258 C.ar    1  UNL1        0.0089
      3 C         142.4137  142.3826  166.8937 C.ar    1  UNL1       -0.0021
      4 C         142.5926  142.1121  168.3582 C.ar    1  UNL1       -0.0003
      5 C         142.6798  140.6994  168.8548 C.ar    1  UNL1        0.0001
      6 C         142.5882  139.5572  167.8869 C.ar    1  UNL1        0.0043
      7 C         142.4094  139.8277  166.4224 C.ar    1  UNL1        0.0517
      8 C         142.2878  138.9125  165.2401 C.2     1  UNL1        0.2496
      9 O         142.3225  137.4134  165.2785 O.2     1  UNL1       -0.2699
     10 N         142.1255  139.7596  164.0129 N.am    1  UNL1       -0.2620
     11 N         140.8795  143.3486  163.7149 N.am    1  UNL1       -0.3059
     12 C         142.0155  142.3864  163.5304 C.2     1  UNL1        0.2448
     13 O         143.0200  142.6124  162.4398 O.2     1  UNL1       -0.2729
     14 H         140.2201  143.2003  164.4308 H       1  UNL1        0.1494
     15 C         141.6969  145.3058  163.6798 C.3     1  UNL1        0.0196
     16 C         140.7483  144.5367  162.8087 C.3     1  UNL1        0.0569
     17 C         139.7998  143.7675  161.9376 C.3     1  UNL1        0.0196
     18 C         140.6171  145.7247  161.9025 C.3     1  UNL1        0.0196
     19 C         141.9693  139.2563  162.6085 C.3     1  UNL1        0.1212
     20 C         140.9122  139.8371  161.7168 C.ar    1  UNL1       -0.0022
     21 C         141.2836  140.3804  160.3688 C.ar    1  UNL1       -0.0003
     22 C         140.2265  140.9612  159.4771 C.ar    1  UNL1        0.0294
     23 C         138.7980  140.9988  159.9334 C.ar    1  UNL1        0.1401
     24 F         137.7409  141.5797  159.0416 F       1  UNL1       -0.2042
     25 C         138.4267  140.4556  161.2813 C.ar    1  UNL1        0.0294
     26 C         139.4838  139.8747  162.1731 C.ar    1  UNL1       -0.0001
     27 C         139.1124  139.3315  163.5210 C.ar    1  UNL1       -0.0002
     28 C         138.7498  140.2696  164.6338 C.ar    1  UNL1       -0.0000
     29 C         138.3784  139.7264  165.9817 C.ar    1  UNL1       -0.0000
     30 C         138.3697  138.2449  166.2169 C.ar    1  UNL1       -0.0000
     31 C         138.7324  137.3068  165.1041 C.ar    1  UNL1       -0.0000
     32 C         139.1038  137.8501  163.7561 C.ar    1  UNL1       -0.0000
@<TRIPOS>BOND
     1    15    16    1
     2    16    17    1
     3    16    18    1
     4    16    11    1
     5    11    12   am
     6    12    13    2
     7    12     1    1
     8     1     2    1
     9     2     3   ar
    10     3     4   ar
    11     4     5   ar
    12     5     6   ar
    13     6     7   ar
    14     7     8    1
    15     8     9    2
    16     8    10   am
    17    10    19    1
    18    19    20    1
    19    20    21   ar
    20    21    22   ar
    21    22    23   ar
    22    23    24    1
    23    23    25   ar
    24    25    26   ar
    25    26    27    1
    26    27    28   ar
    27    28    29   ar
    28    29    30   ar
    29    30    31   ar
    30    31    32   ar
    31    10     1    1
    32    26    20   ar
    33    32    27   ar
    34     7     2   ar
    35    11    14    1
@<TRIPOS>MOLECULE
*****
 32 35 0 0 0
SMALL
GASTEIGER

@<TRIPOS>ATOM
      1 C         141.7203  140.7397  161.9855 C.3     1  UNL1        0.1753
      2 C         143.1069  141.1006  162.4297 C.ar    1  UNL1        0.0089
      3 C         144.1823  141.9278  161.7901 C.ar    1  UNL1       -0.0021
      4 C         145.4971  142.1169  162.4867 C.ar    1  UNL1       -0.0003
      5 C         145.7366  141.4787  163.8229 C.ar    1  UNL1        0.0001
      6 C         144.6612  140.6514  164.4624 C.ar    1  UNL1        0.0043
      7 C         143.3464  140.4624  163.7658 C.ar    1  UNL1        0.0517
      8 C         142.1078  139.7071  164.1474 C.2     1  UNL1        0.2496
      9 O         141.9092  138.9188  165.4080 O.2     1  UNL1       -0.2699
     10 N         141.1029  139.8784  163.0471 N.am    1  UNL1       -0.2620
     11 N         140.6418  142.5918  160.5170 N.am    1  UNL1       -0.3059
     12 C         141.0661  141.1653  160.7045 C.2     1  UNL1        0.2448
     13 O         140.8362  140.1646  159.6111 O.2     1  UNL1       -0.2729
     14 H         140.7926  143.2487  161.2346 H       1  UNL1        0.1494
     15 C         141.3226  143.4320  158.6920 C.3     1  UNL1        0.0196
     16 C         139.9875  143.0175  159.2360 C.3     1  UNL1        0.0569
     17 C         138.6526  142.6030  159.7801 C.3     1  UNL1        0.0196
     18 C         139.3334  143.4431  157.9551 C.3     1  UNL1        0.0196
     19 C         139.7228  139.2916  163.0142 C.3     1  UNL1        0.1212
     20 C         139.0295  138.9332  164.2951 C.ar    1  UNL1       -0.0022
     21 C         138.8713  137.4933  164.6848 C.ar    1  UNL1       -0.0003
     22 C         138.1780  137.1348  165.9657 C.ar    1  UNL1        0.0294
     23 C         137.6428  138.2162  166.8569 C.ar    1  UNL1        0.1401
     24 F         136.9495  137.8576  168.1379 F       1  UNL1       -0.2042
     25 C         137.8010  139.6560  166.4673 C.ar    1  UNL1        0.0294
     26 C         138.4944  140.0145  165.1863 C.ar    1  UNL1       -0.0001
     27 C         138.6525  141.4543  164.7966 C.ar    1  UNL1       -0.0002
     28 C         137.6843  142.0828  163.8387 C.ar    1  UNL1       -0.0000
     29 C         137.8425  143.5226  163.4490 C.ar    1  UNL1       -0.0000
     30 C         138.9689  144.3340  164.0173 C.ar    1  UNL1       -0.0000
     31 C         139.9371  143.7055  164.9753 C.ar    1  UNL1       -0.0000
     32 C         139.7789  142.2656  165.3649 C.ar    1  UNL1       -0.0000
@<TRIPOS>BOND
     1    15    16    1
     2    16    17    1
     3    16    18    1
     4    16    11    1
     5    11    12   am
     6    12    13    2
     7    12     1    1
     8     1     2    1
     9     2     3   ar
    10     3     4   ar
    11     4     5   ar
    12     5     6   ar
    13     6     7   ar
    14     7     8    1
    15     8     9    2
    16     8    10   am
    17    10    19    1
    18    19    20    1
    19    20    21   ar
    20    21    22   ar
    21    22    23   ar
    22    23    24    1
    23    23    25   ar
    24    25    26   ar
    25    26    27    1
    26    27    28   ar
    27    28    29   ar
    28    29    30   ar
    29    30    31   ar
    30    31    32   ar
    31    10     1    1
    32    26    20   ar
    33    32    27   ar
    34     7     2   ar
    35    11    14    1
@<TRIPOS>MOLECULE
*****
 32 35 0 0 0
SMALL
GASTEIGER

@<TRIPOS>ATOM
      1 C         141.1739  141.6951  166.5099 C.3     1  UNL1        0.1753
      2 C         141.1605  141.9950  167.9795 C.ar    1  UNL1        0.0089
      3 C         140.5331  143.1033  168.7721 C.ar    1  UNL1       -0.0021
      4 C         140.6931  143.1427  170.2629 C.ar    1  UNL1       -0.0003
      5 C         141.4805  142.0740  170.9613 C.ar    1  UNL1        0.0001
      6 C         142.1080  140.9658  170.1688 C.ar    1  UNL1        0.0043
      7 C         141.9480  140.9263  168.6779 C.ar    1  UNL1        0.0517
      8 C         142.4480  139.9659  167.6398 C.2     1  UNL1        0.2496
      9 O         143.2803  138.7447  167.8967 O.2     1  UNL1       -0.2699
     10 N         141.9695  140.4410  166.2999 N.am    1  UNL1       -0.2620
     11 N         139.0125  142.6127  165.3977 N.am    1  UNL1       -0.3059
     12 C         140.5083  142.5068  165.4383 C.2     1  UNL1        0.2448
     13 O         141.3384  143.2125  164.4075 O.2     1  UNL1       -0.2729
     14 H         138.4677  142.1495  166.0743 H       1  UNL1        0.1494
     15 C         138.5626  144.6690  165.1351 C.3     1  UNL1        0.0196
     16 C         138.3470  143.4244  164.3261 C.3     1  UNL1        0.0569
     17 C         138.1315  142.1797  163.5171 C.3     1  UNL1        0.0196
     18 C         137.6815  144.2361  163.2546 C.3     1  UNL1        0.0196
     19 C         142.2394  139.7783  164.9816 C.3     1  UNL1        0.1212
     20 C         143.0815  140.4718  163.9521 C.ar    1  UNL1       -0.0022
     21 C         144.3578  141.1473  164.3582 C.ar    1  UNL1       -0.0003
     22 C         145.1999  141.8407  163.3287 C.ar    1  UNL1        0.0294
     23 C         144.7657  141.8588  161.8930 C.ar    1  UNL1        0.1401
     24 F         145.6079  142.5524  160.8635 F       1  UNL1       -0.2042
     25 C         143.4895  141.1835  161.4868 C.ar    1  UNL1        0.0294
     26 C         142.6473  140.4899  162.5164 C.ar    1  UNL1       -0.0001
     27 C         141.3711  139.8145  162.1102 C.ar    1  UNL1       -0.0002
     28 C         141.0661  138.4302  162.6007 C.ar    1  UNL1       -0.0000
     29 C         139.7898  137.7548  162.1945 C.ar    1  UNL1       -0.0000
     30 C         138.8185  138.4638  161.2978 C.ar    1  UNL1       -0.0000
     31 C         139.1235  139.8481  160.8074 C.ar    1  UNL1       -0.0000
     32 C         140.3998  140.5235  161.2136 C.ar    1  UNL1       -0.0000
@<TRIPOS>BOND
     1    15    16    1
     2    16    17    1
     3    16    18    1
     4    16    11    1
     5    11    12   am
     6    12    13    2
     7    12     1    1
     8     1     2    1
     9     2     3   ar
    10     3     4   ar
    11     4     5   ar
    12     5     6   ar
    13     6     7   ar
    14     7     8    1
    15     8     9    2
    16     8    10   am
    17    10    19    1
    18    19    20    1
    19    20    21   ar
    20    21    22   ar
    21    22    23   ar
    22    23    24    1
    23    23    25   ar
    24    25    26   ar
    25    26    27    1
    26    27    28   ar
    27    28    29   ar
    28    29    30   ar
    29    30    31   ar
    30    31    32   ar
    31    10     1    1
    32    26    20   ar
    33    32    27   ar
    34     7     2   ar
    35    11    14    1
