@<TRIPOS>MOLECULE
*****
 23 26 0 0 0
SMALL
GASTEIGER

@<TRIPOS>ATOM
      1 C         141.0037  141.8664  168.4247 C.3     1  UNL1        0.0388
      2 C         141.0752  140.9620  169.6193 C.3     1  UNL1        0.0228
      3 C         140.6668  141.7545  170.8256 C.3     1  UNL1        0.0689
      4 N         140.3429  143.1485  170.3766 N.3     1  UNL1       -0.2972
      5 C         140.5511  143.2177  168.8928 C.3     1  UNL1        0.0729
      6 H         140.9581  143.8144  170.8439 H       1  UNL1        0.1233
      7 C         141.7702  144.7236  161.9532 C.3     1  UNL1        0.1305
      8 N         140.8062  144.5489  163.0890 N.ar    1  UNL1       -0.3240
      9 C         139.4026  145.0753  163.1431 C.ar    1  UNL1        0.0760
     10 C         138.8055  144.6689  164.4577 C.ar    1  UNL1        0.0201
     11 C         139.8399  143.8912  165.2160 C.ar    1  UNL1        0.0170
     12 C         139.8157  143.2410  166.5675 C.ar    1  UNL1       -0.0027
     13 C         141.0279  142.5166  167.0732 C.ar    1  UNL1       -0.0210
     14 C         142.2645  142.4425  166.2273 C.ar    1  UNL1       -0.0028
     15 C         142.2887  143.0927  164.8757 C.ar    1  UNL1        0.0169
     16 C         141.0764  143.8170  164.3701 C.ar    1  UNL1        0.0600
     17 C         141.4614  140.6510  167.6741 C.3     1  UNL1        0.0318
     18 C         140.4596  139.7773  166.9792 C.ar    1  UNL1       -0.0218
     19 C         140.8438  139.0443  165.7281 C.ar    1  UNL1       -0.0043
     20 C         139.8419  138.1706  165.0331 C.ar    1  UNL1       -0.0003
     21 C         138.4559  138.0299  165.5892 C.ar    1  UNL1       -0.0000
     22 C         138.0717  138.7629  166.8403 C.ar    1  UNL1       -0.0003
     23 C         139.0736  139.6367  167.5353 C.ar    1  UNL1       -0.0043
@<TRIPOS>BOND
     1     7     8    1
     2     8     9   ar
     3     9    10   ar
     4    10    11   ar
     5    11    12   ar
     6    12    13   ar
     7    13     1    1
     8     1    17    1
     9    17    18    1
    10    18    19   ar
    11    19    20   ar
    12    20    21   ar
    13    21    22   ar
    14    22    23   ar
    15     1     2    1
    16     2     3    1
    17     3     4    1
    18     4     5    1
    19    13    14   ar
    20    14    15   ar
    21    15    16   ar
    22    16     8   ar
    23    16    11   ar
    24     5     1    1
    25    23    18   ar
    26     4     6    1
@<TRIPOS>MOLECULE
*****
 23 26 0 0 0
SMALL
GASTEIGER

@<TRIPOS>ATOM
      1 C         140.8913  141.8241  168.5121 C.3     1  UNL1        0.0388
      2 C         140.5679  141.0416  169.7503 C.3     1  UNL1        0.0228
      3 C         140.0017  141.9911  170.7640 C.3     1  UNL1        0.0689
      4 N         139.9751  143.3605  170.1524 N.3     1  UNL1       -0.2972
      5 C         140.5249  143.2572  168.7606 C.3     1  UNL1        0.0729
      6 H         140.5489  143.9976  170.7049 H       1  UNL1        0.1233
      7 C         142.2105  144.3821  162.0045 C.3     1  UNL1        0.1305
      8 N         142.8503  143.7543  163.2072 N.ar    1  UNL1       -0.3240
      9 C         144.3068  143.4316  163.3636 C.ar    1  UNL1        0.0760
     10 C         144.5025  142.8168  164.7177 C.ar    1  UNL1        0.0201
     11 C         143.1670  142.7595  165.3982 C.ar    1  UNL1        0.0170
     12 C         142.7488  142.2545  166.7473 C.ar    1  UNL1       -0.0027
     13 C         141.3095  142.3290  167.1629 C.ar    1  UNL1       -0.0210
     14 C         140.2884  142.9084  166.2294 C.ar    1  UNL1       -0.0028
     15 C         140.7065  143.4134  164.8803 C.ar    1  UNL1        0.0169
     16 C         142.1459  143.3389  164.4647 C.ar    1  UNL1        0.0600
     17 C         141.3451  140.4965  167.9815 C.3     1  UNL1        0.0318
     18 C         140.4477  139.7031  167.0787 C.ar    1  UNL1       -0.0218
     19 C         138.9975  139.5336  167.4231 C.ar    1  UNL1       -0.0043
     20 C         138.1001  138.7402  166.5202 C.ar    1  UNL1       -0.0003
     21 C         138.6526  138.1164  165.2730 C.ar    1  UNL1       -0.0000
     22 C         140.1027  138.2859  164.9286 C.ar    1  UNL1       -0.0003
     23 C         141.0002  139.0793  165.8315 C.ar    1  UNL1       -0.0043
@<TRIPOS>BOND
     1     7     8    1
     2     8     9   ar
     3     9    10   ar
     4    10    11   ar
     5    11    12   ar
     6    12    13   ar
     7    13     1    1
     8     1    17    1
     9    17    18    1
    10    18    19   ar
    11    19    20   ar
    12    20    21   ar
    13    21    22   ar
    14    22    23   ar
    15     1     2    1
    16     2     3    1
    17     3     4    1
    18     4     5    1
    19    13    14   ar
    20    14    15   ar
    21    15    16   ar
    22    16     8   ar
    23    16    11   ar
    24     5     1    1
    25    23    18   ar
    26     4     6    1
@<TRIPOS>MOLECULE
*****
 23 26 0 0 0
SMALL
GASTEIGER

@<TRIPOS>ATOM
      1 C         141.0089  140.9651  168.2816 C.3     1  UNL1        0.0388
      2 C         142.0013  140.5219  169.3153 C.3     1  UNL1        0.0228
      3 C         141.2610  139.7525  170.3688 C.3     1  UNL1        0.0689
      4 N         139.8110  139.7200  169.9861 N.3     1  UNL1       -0.2972
      5 C         139.6552  140.4695  168.6961 C.3     1  UNL1        0.0729
      6 H         139.2509  140.1637  170.7140 H       1  UNL1        0.1233
      7 C         137.7274  144.2979  162.9191 C.3     1  UNL1        0.1305
      8 N         137.9583  142.9541  163.5442 N.ar    1  UNL1       -0.3240
      9 C         137.4046  141.6480  163.0567 C.ar    1  UNL1        0.0760
     10 C         137.8875  140.5672  163.9778 C.ar    1  UNL1        0.0201
     11 C         138.7397  141.2051  165.0346 C.ar    1  UNL1        0.0170
     12 C         139.4815  140.6334  166.2062 C.ar    1  UNL1       -0.0027
     13 C         140.2671  141.5368  167.1099 C.ar    1  UNL1       -0.0210
     14 C         140.3108  143.0120  166.8419 C.ar    1  UNL1       -0.0028
     15 C         139.5690  143.5838  165.6702 C.ar    1  UNL1        0.0169
     16 C         138.7835  142.6803  164.7666 C.ar    1  UNL1        0.0600
     17 C         142.2075  141.5802  167.6220 C.3     1  UNL1        0.0318
     18 C         142.9377  140.8325  166.5460 C.ar    1  UNL1       -0.0218
     19 C         143.6136  141.5836  165.4373 C.ar    1  UNL1       -0.0043
     20 C         144.3437  140.8359  164.3613 C.ar    1  UNL1       -0.0003
     21 C         144.3981  139.3372  164.3939 C.ar    1  UNL1       -0.0000
     22 C         143.7223  138.5862  165.5026 C.ar    1  UNL1       -0.0003
     23 C         142.9920  139.3339  166.5787 C.ar    1  UNL1       -0.0043
@<TRIPOS>BOND
     1     7     8    1
     2     8     9   ar
     3     9    10   ar
     4    10    11   ar
     5    11    12   ar
     6    12    13   ar
     7    13     1    1
     8     1    17    1
     9    17    18    1
    10    18    19   ar
    11    19    20   ar
    12    20    21   ar
    13    21    22   ar
    14    22    23   ar
    15     1     2    1
    16     2     3    1
    17     3     4    1
    18     4     5    1
    19    13    14   ar
    20    14    15   ar
    21    15    16   ar
    22    16     8   ar
    23    16    11   ar
    24     5     1    1
    25    23    18   ar
    26     4     6    1
@<TRIPOS>MOLECULE
*****
 23 26 0 0 0
SMALL
GASTEIGER

@<TRIPOS>ATOM
      1 C         139.1298  139.3629  164.5367 C.3     1  UNL1        0.0388
      2 C         138.2823  139.4183  163.3003 C.3     1  UNL1        0.0228
      3 C         138.7458  138.3354  162.3717 C.3     1  UNL1        0.0689
      4 N         139.8797  137.6106  163.0341 N.3     1  UNL1       -0.2972
      5 C         140.1171  138.2457  164.3722 C.3     1  UNL1        0.0729
      6 H         140.7203  137.6858  162.4613 H       1  UNL1        0.1233
      7 C         142.9123  140.1490  170.5122 C.3     1  UNL1        0.1305
      8 N         141.5186  140.1460  169.9575 N.ar    1  UNL1       -0.3240
      9 C         140.2578  140.3667  170.7396 C.ar    1  UNL1        0.0760
     10 C         139.1011  140.2788  169.7887 C.ar    1  UNL1        0.0201
     11 C         139.6470  140.0038  168.4189 C.ar    1  UNL1        0.0170
     12 C         138.9765  139.8176  167.0901 C.ar    1  UNL1       -0.0027
     13 C         139.8002  139.5492  165.8656 C.ar    1  UNL1       -0.0210
     14 C         141.2943  139.4671  165.9699 C.ar    1  UNL1       -0.0028
     15 C         141.9648  139.6533  167.2987 C.ar    1  UNL1        0.0169
     16 C         141.1411  139.9217  168.5232 C.ar    1  UNL1        0.0600
     17 C         138.2827  140.5191  164.9790 C.3     1  UNL1        0.0318
     18 C         138.5463  141.8926  164.4369 C.ar    1  UNL1       -0.0218
     19 C         137.4721  142.6210  163.6848 C.ar    1  UNL1       -0.0043
     20 C         137.7357  143.9945  163.1426 C.ar    1  UNL1       -0.0003
     21 C         139.0735  144.6397  163.3525 C.ar    1  UNL1       -0.0000
     22 C         140.1477  143.9114  164.1046 C.ar    1  UNL1       -0.0003
     23 C         139.8841  142.5378  164.6468 C.ar    1  UNL1       -0.0043
@<TRIPOS>BOND
     1     7     8    1
     2     8     9   ar
     3     9    10   ar
     4    10    11   ar
     5    11    12   ar
     6    12    13   ar
     7    13     1    1
     8     1    17    1
     9    17    18    1
    10    18    19   ar
    11    19    20   ar
    12    20    21   ar
    13    21    22   ar
    14    22    23   ar
    15     1     2    1
    16     2     3    1
    17     3     4    1
    18     4     5    1
    19    13    14   ar
    20    14    15   ar
    21    15    16   ar
    22    16     8   ar
    23    16    11   ar
    24     5     1    1
    25    23    18   ar
    26     4     6    1
@<TRIPOS>MOLECULE
*****
 23 26 0 0 0
SMALL
GASTEIGER

@<TRIPOS>ATOM
      1 C         138.7109  139.2465  163.5113 C.3     1  UNL1        0.0388
      2 C         138.0104  139.3187  162.1869 C.3     1  UNL1        0.0228
      3 C         138.5624  138.2336  161.3108 C.3     1  UNL1        0.0689
      4 N         139.6040  137.4906  162.0937 N.3     1  UNL1       -0.2972
      5 C         139.6958  138.1166  163.4537 C.3     1  UNL1        0.0729
      6 H         140.5053  137.5568  161.6206 H       1  UNL1        0.1233
      7 C         140.5103  139.9818  170.3563 C.3     1  UNL1        0.1305
      8 N         141.0576  139.9621  168.9598 N.ar    1  UNL1       -0.3240
      9 C         142.4961  140.1401  168.5740 C.ar    1  UNL1        0.0760
     10 C         142.5899  140.0489  167.0797 C.ar    1  UNL1        0.0201
     11 C         141.2093  139.8146  166.5420 C.ar    1  UNL1        0.0170
     12 C         140.6922  139.6431  165.1445 C.ar    1  UNL1       -0.0027
     13 C         139.2280  139.4180  164.9089 C.ar    1  UNL1       -0.0210
     14 C         138.2810  139.3643  166.0709 C.ar    1  UNL1       -0.0028
     15 C         138.7981  139.5357  167.4684 C.ar    1  UNL1        0.0169
     16 C         140.2623  139.7609  167.7040 C.ar    1  UNL1        0.0600
     17 C         137.8340  140.4122  163.8611 C.3     1  UNL1        0.0318
     18 C         138.3536  141.8117  163.7155 C.ar    1  UNL1       -0.0218
     19 C         137.8194  142.9052  164.5925 C.ar    1  UNL1       -0.0043
     20 C         138.3390  144.3048  164.4468 C.ar    1  UNL1       -0.0003
     21 C         139.3928  144.6109  163.4242 C.ar    1  UNL1       -0.0000
     22 C         139.9271  143.5176  162.5473 C.ar    1  UNL1       -0.0003
     23 C         139.4075  142.1179  162.6929 C.ar    1  UNL1       -0.0043
@<TRIPOS>BOND
     1     7     8    1
     2     8     9   ar
     3     9    10   ar
     4    10    11   ar
     5    11    12   ar
     6    12    13   ar
     7    13     1    1
     8     1    17    1
     9    17    18    1
    10    18    19   ar
    11    19    20   ar
    12    20    21   ar
    13    21    22   ar
    14    22    23   ar
    15     1     2    1
    16     2     3    1
    17     3     4    1
    18     4     5    1
    19    13    14   ar
    20    14    15   ar
    21    15    16   ar
    22    16     8   ar
    23    16    11   ar
    24     5     1    1
    25    23    18   ar
    26     4     6    1
@<TRIPOS>MOLECULE
*****
 23 26 0 0 0
SMALL
GASTEIGER

@<TRIPOS>ATOM
      1 C         143.1062  139.2341  164.4361 C.3     1  UNL1        0.0388
      2 C         142.9613  138.4171  163.1865 C.3     1  UNL1        0.0228
      3 C         144.1134  138.7435  162.2832 C.3     1  UNL1        0.0689
      4 N         144.9704  139.7622  162.9744 N.3     1  UNL1       -0.2972
      5 C         144.3478  140.0654  164.3051 C.3     1  UNL1        0.0729
      6 H         145.0185  140.6124  162.4130 H       1  UNL1        0.1233
      7 C         142.6161  143.0264  170.4369 C.3     1  UNL1        0.1305
      8 N         142.5943  141.6317  169.8853 N.ar    1  UNL1       -0.3240
      9 C         142.4167  140.3719  170.6800 C.ar    1  UNL1        0.0760
     10 C         142.4588  139.2136  169.7280 C.ar    1  UNL1        0.0201
     11 C         142.6625  139.7574  168.3449 C.ar    1  UNL1        0.0170
     12 C         142.7824  139.0848  167.0096 C.ar    1  UNL1       -0.0027
     13 C         142.9862  139.9067  165.7715 C.ar    1  UNL1       -0.0210
     14 C         143.0699  141.4012  165.8688 C.ar    1  UNL1       -0.0028
     15 C         142.9499  142.0738  167.2041 C.ar    1  UNL1        0.0169
     16 C         142.7462  141.2519  168.4422 C.ar    1  UNL1        0.0600
     17 C         141.8394  138.5434  164.8463 C.3     1  UNL1        0.0318
     18 C         140.5715  138.7867  164.0828 C.ar    1  UNL1       -0.0218
     19 C         139.8105  137.6305  163.5045 C.ar    1  UNL1       -0.0043
     20 C         138.5425  137.8738  162.7410 C.ar    1  UNL1       -0.0003
     21 C         138.0354  139.2732  162.5556 C.ar    1  UNL1       -0.0000
     22 C         138.7963  140.4294  163.1338 C.ar    1  UNL1       -0.0003
     23 C         140.0643  140.1862  163.8974 C.ar    1  UNL1       -0.0043
@<TRIPOS>BOND
     1     7     8    1
     2     8     9   ar
     3     9    10   ar
     4    10    11   ar
     5    11    12   ar
     6    12    13   ar
     7    13     1    1
     8     1    17    1
     9    17    18    1
    10    18    19   ar
    11    19    20   ar
    12    20    21   ar
    13    21    22   ar
    14    22    23   ar
    15     1     2    1
    16     2     3    1
    17     3     4    1
    18     4     5    1
    19    13    14   ar
    20    14    15   ar
    21    15    16   ar
    22    16     8   ar
    23    16    11   ar
    24     5     1    1
    25    23    18   ar
    26     4     6    1
@<TRIPOS>MOLECULE
*****
 23 26 0 0 0
SMALL
GASTEIGER

@<TRIPOS>ATOM
      1 C         140.9896  141.1695  168.1666 C.3     1  UNL1        0.0388
      2 C         140.6057  140.1205  169.1677 C.3     1  UNL1        0.0228
      3 C         139.8973  140.7997  170.3022 C.3     1  UNL1        0.0689
      4 N         139.8434  142.2683  170.0023 N.3     1  UNL1       -0.2972
      5 C         140.5185  142.4969  168.6824 C.3     1  UNL1        0.0729
      6 H         140.3277  142.7890  170.7335 H       1  UNL1        0.1233
      7 C         144.0101  144.7360  162.8011 C.3     1  UNL1        0.1305
      8 N         142.7085  144.4879  163.5042 N.ar    1  UNL1       -0.3240
      9 C         141.3839  145.0945  163.1471 C.ar    1  UNL1        0.0760
     10 C         140.3598  144.5711  164.1100 C.ar    1  UNL1        0.0201
     11 C         141.0514  143.6411  165.0622 C.ar    1  UNL1        0.0170
     12 C         140.5469  142.8344  166.2218 C.ar    1  UNL1       -0.0027
     13 C         141.4940  141.9763  167.0070 C.ar    1  UNL1       -0.0210
     14 C         142.9456  141.9248  166.6325 C.ar    1  UNL1       -0.0028
     15 C         143.4501  142.7315  165.4729 C.ar    1  UNL1        0.0169
     16 C         142.5030  143.5896  164.6878 C.ar    1  UNL1        0.0600
     17 C         141.5661  140.0108  167.4084 C.3     1  UNL1        0.0318
     18 C         140.7150  139.2563  166.4306 C.ar    1  UNL1       -0.0218
     19 C         141.3588  138.4080  165.3741 C.ar    1  UNL1       -0.0043
     20 C         140.5077  137.6535  164.3963 C.ar    1  UNL1       -0.0003
     21 C         139.0126  137.7473  164.4748 C.ar    1  UNL1       -0.0000
     22 C         138.3688  138.5955  165.5311 C.ar    1  UNL1       -0.0003
     23 C         139.2199  139.3500  166.5091 C.ar    1  UNL1       -0.0043
@<TRIPOS>BOND
     1     7     8    1
     2     8     9   ar
     3     9    10   ar
     4    10    11   ar
     5    11    12   ar
     6    12    13   ar
     7    13     1    1
     8     1    17    1
     9    17    18    1
    10    18    19   ar
    11    19    20   ar
    12    20    21   ar
    13    21    22   ar
    14    22    23   ar
    15     1     2    1
    16     2     3    1
    17     3     4    1
    18     4     5    1
    19    13    14   ar
    20    14    15   ar
    21    15    16   ar
    22    16     8   ar
    23    16    11   ar
    24     5     1    1
    25    23    18   ar
    26     4     6    1
@<TRIPOS>MOLECULE
*****
 23 26 0 0 0
SMALL
GASTEIGER

@<TRIPOS>ATOM
      1 C         141.4595  139.6764  167.4186 C.3     1  UNL1        0.0388
      2 C         142.5594  139.5646  168.4323 C.3     1  UNL1        0.0228
      3 C         141.9747  139.8491  169.7839 C.3     1  UNL1        0.0689
      4 N         140.5134  140.1368  169.6057 N.3     1  UNL1       -0.2972
      5 C         140.1950  140.0300  168.1437 C.3     1  UNL1        0.0729
      6 H         140.3027  141.0778  169.9380 H       1  UNL1        0.1233
      7 C         137.5658  139.2382  161.4789 C.3     1  UNL1        0.1305
      8 N         137.8795  140.1154  162.6545 N.ar    1  UNL1       -0.3240
      9 C         137.2895  141.4670  162.9284 C.ar    1  UNL1        0.0760
     10 C         137.8837  141.9819  164.2058 C.ar    1  UNL1        0.0201
     11 C         138.8410  140.9486  164.7214 C.ar    1  UNL1        0.0170
     12 C         139.7147  140.9091  165.9400 C.ar    1  UNL1       -0.0027
     13 C         140.5858  139.7160  166.1999 C.ar    1  UNL1       -0.0210
     14 C         140.5832  138.5624  165.2411 C.ar    1  UNL1       -0.0028
     15 C         139.7095  138.6019  164.0225 C.ar    1  UNL1        0.0169
     16 C         138.8384  139.7950  163.7626 C.ar    1  UNL1        0.0600
     17 C         142.5414  139.3311  166.4386 C.3     1  UNL1        0.0318
     18 C         143.3290  140.4221  165.7757 C.ar    1  UNL1       -0.0218
     19 C         143.1812  141.8413  166.2386 C.ar    1  UNL1       -0.0043
     20 C         143.9688  142.9322  165.5757 C.ar    1  UNL1       -0.0003
     21 C         144.9042  142.6041  164.4500 C.ar    1  UNL1       -0.0000
     22 C         145.0521  141.1850  163.9871 C.ar    1  UNL1       -0.0003
     23 C         144.2644  140.0939  164.6500 C.ar    1  UNL1       -0.0043
@<TRIPOS>BOND
     1     7     8    1
     2     8     9   ar
     3     9    10   ar
     4    10    11   ar
     5    11    12   ar
     6    12    13   ar
     7    13     1    1
     8     1    17    1
     9    17    18    1
    10    18    19   ar
    11    19    20   ar
    12    20    21   ar
    13    21    22   ar
    14    22    23   ar
    15     1     2    1
    16     2     3    1
    17     3     4    1
    18     4     5    1
    19    13    14   ar
    20    14    15   ar
    21    15    16   ar
    22    16     8   ar
    23    16    11   ar
    24     5     1    1
    25    23    18   ar
    26     4     6    1
@<TRIPOS>MOLECULE
*****
 23 26 0 0 0
SMALL
GASTEIGER

@<TRIPOS>ATOM
      1 C         141.5045  141.2850  167.9005 C.3     1  UNL1        0.0388
      2 C         141.3135  140.2264  168.9459 C.3     1  UNL1        0.0228
      3 C         142.3848  140.3989  169.9814 C.3     1  UNL1        0.0689
      4 N         143.2380  141.5640  169.5761 N.3     1  UNL1       -0.2972
      5 C         142.6939  142.1117  168.2900 C.3     1  UNL1        0.0729
      6 H         144.2015  141.2574  169.4416 H       1  UNL1        0.1233
      7 C         140.5413  145.7456  162.4409 C.3     1  UNL1        0.1305
      8 N         141.5704  144.9304  163.1664 N.ar    1  UNL1       -0.3240
      9 C         143.0269  144.8386  162.8201 C.ar    1  UNL1        0.0760
     10 C         143.6803  143.9153  163.8052 C.ar    1  UNL1        0.0201
     11 C         142.6276  143.4364  164.7605 C.ar    1  UNL1        0.0170
     12 C         142.6879  142.5102  165.9387 C.ar    1  UNL1       -0.0027
     13 C         141.4442  142.2113  166.7222 C.ar    1  UNL1       -0.0210
     14 C         140.1402  142.8387  166.3274 C.ar    1  UNL1       -0.0028
     15 C         140.0798  143.7649  165.1491 C.ar    1  UNL1        0.0169
     16 C         141.3235  144.0638  164.3656 C.ar    1  UNL1        0.0600
     17 C         140.3024  140.6519  167.2647 C.3     1  UNL1        0.0318
     18 C         140.4728  139.4955  166.3248 C.ar    1  UNL1       -0.0218
     19 C         139.2674  138.8013  165.7634 C.ar    1  UNL1       -0.0043
     20 C         139.4378  137.6448  164.8235 C.ar    1  UNL1       -0.0003
     21 C         140.8136  137.1825  164.4448 C.ar    1  UNL1       -0.0000
     22 C         142.0190  137.8766  165.0061 C.ar    1  UNL1       -0.0003
     23 C         141.8487  139.0332  165.9461 C.ar    1  UNL1       -0.0043
@<TRIPOS>BOND
     1     7     8    1
     2     8     9   ar
     3     9    10   ar
     4    10    11   ar
     5    11    12   ar
     6    12    13   ar
     7    13     1    1
     8     1    17    1
     9    17    18    1
    10    18    19   ar
    11    19    20   ar
    12    20    21   ar
    13    21    22   ar
    14    22    23   ar
    15     1     2    1
    16     2     3    1
    17     3     4    1
    18     4     5    1
    19    13    14   ar
    20    14    15   ar
    21    15    16   ar
    22    16     8   ar
    23    16    11   ar
    24     5     1    1
    25    23    18   ar
    26     4     6    1
