@<TRIPOS>MOLECULE
*****
 29 32 0 0 0
SMALL
GASTEIGER

@<TRIPOS>ATOM
      1 C         139.8516  140.7750  166.9786 C.ar    1  UNL1        0.0351
      2 C         140.2660  141.7911  165.9560 C.ar    1  UNL1        0.0048
      3 C         139.5682  141.8477  164.6293 C.ar    1  UNL1        0.0439
      4 C         138.4559  140.8883  164.3254 C.ar    1  UNL1        0.0048
      5 C         138.0415  139.8722  165.3482 C.ar    1  UNL1        0.0365
      6 C         138.7394  139.8156  166.6747 C.ar    1  UNL1        0.1336
      7 O         138.3250  138.7994  167.6974 O.3     1  UNL1       -0.5055
      8 H         137.6302  138.2001  167.5076 H       1  UNL1        0.2922
      9 C         139.9826  142.8638  163.6067 C.3     1  UNL1        0.2764
     10 N         140.1989  144.0676  162.7384 N.2     1  UNL1       -0.2227
     11 C         141.1936  143.7010  161.6772 C.2     1  UNL1        0.1396
     12 C         141.7008  144.6060  160.5937 C.3     1  UNL1        0.0597
     13 C         141.5921  142.2706  161.8896 C.2     1  UNL1        0.3285
     14 N         142.5677  141.4940  161.0559 N.pl3   1  UNL1       -0.2454
     15 N         140.8436  141.7532  163.0821 N.2     1  UNL1       -0.0450
     16 H         143.0108  141.9235  160.2888 H       1  UNL1        0.2885
     17 H         142.7649  140.5549  161.2759 H       1  UNL1        0.2885
     18 C         139.0349  143.7620  164.3451 C.3     1  UNL1        0.0715
     19 C         138.7917  144.8478  165.3510 C.3     1  UNL1        0.0068
     20 C         137.6369  144.2319  164.6181 C.3     1  UNL1        0.0068
     21 C         142.0934  139.4741  169.9840 C.ar    1  UNL1        0.0608
     22 C         141.9452  140.6049  170.9583 C.ar    1  UNL1        0.1071
     23 N         141.0991  141.7924  170.6061 N.ar    1  UNL1       -0.2417
     24 C         140.4013  141.8491  169.2795 C.ar    1  UNL1        0.0990
     25 C         140.5495  140.7183  168.3052 C.ar    1  UNL1        0.0227
     26 C         141.3955  139.5308  168.6575 C.ar    1  UNL1        0.0114
     27 C         144.6315  135.9117  171.0407 C.3     1  UNL1        0.0903
     28 C         143.7855  137.0991  170.6885 C.1     1  UNL1       -0.0853
     29 C         142.9394  138.2866  170.3363 C.1     1  UNL1       -0.0628
@<TRIPOS>BOND
     1    27    28    1
     2    28    29    3
     3    29    21    1
     4    21    22   ar
     5    22    23   ar
     6    23    24   ar
     7    24    25   ar
     8    25     1    1
     9     1     2   ar
    10     2     3   ar
    11     3     9    1
    12     9    18    1
    13    18    19    1
    14    19    20    1
    15     9    10    1
    16    10    11    2
    17    11    12    1
    18    11    13    1
    19    13    14    1
    20    13    15    2
    21     3     4   ar
    22     4     5   ar
    23     5     6   ar
    24     6     7    1
    25    25    26   ar
    26    26    21   ar
    27     6     1   ar
    28    15     9    1
    29    20    18    1
    30    14    16    1
    31    14    17    1
    32     7     8    1
@<TRIPOS>MOLECULE
*****
 29 32 0 0 0
SMALL
GASTEIGER

@<TRIPOS>ATOM
      1 C         141.5561  141.4726  166.5860 C.ar    1  UNL1        0.0351
      2 C         141.2497  142.6787  165.7485 C.ar    1  UNL1        0.0048
      3 C         141.6213  142.6969  164.2953 C.ar    1  UNL1        0.0439
      4 C         142.2994  141.5090  163.6797 C.ar    1  UNL1        0.0048
      5 C         142.6058  140.3028  164.5172 C.ar    1  UNL1        0.0365
      6 C         142.2342  140.2847  165.9703 C.ar    1  UNL1        0.1336
      7 O         142.5407  139.0785  166.8078 O.3     1  UNL1       -0.5055
      8 H         142.9643  138.3364  166.4233 H       1  UNL1        0.2922
      9 C         141.3148  143.9030  163.4579 C.3     1  UNL1        0.2764
     10 N         141.3156  145.1652  162.6475 N.2     1  UNL1       -0.2227
     11 C         139.9102  145.4247  162.1923 C.2     1  UNL1        0.1396
     12 C         139.4542  146.5828  161.3549 C.3     1  UNL1        0.0597
     13 C         139.0407  144.3229  162.7213 C.2     1  UNL1        0.3285
     14 N         137.5626  144.1856  162.5059 N.pl3   1  UNL1       -0.2454
     15 N         139.9088  143.3824  163.5035 N.2     1  UNL1       -0.0450
     16 H         137.0780  144.8580  161.9746 H       1  UNL1        0.2885
     17 H         137.0770  143.4231  162.8959 H       1  UNL1        0.2885
     18 C         142.7849  144.1714  163.5874 C.3     1  UNL1        0.0715
     19 C         144.1578  144.2029  162.9838 C.3     1  UNL1        0.0068
     20 C         143.9583  144.6049  164.4151 C.3     1  UNL1        0.0068
     21 C         139.5723  140.7218  169.9402 C.ar    1  UNL1        0.0608
     22 C         140.4412  141.4179  170.9453 C.ar    1  UNL1        0.1071
     23 N         141.6818  142.1323  170.4973 N.ar    1  UNL1       -0.2417
     24 C         142.0534  142.1505  169.0442 C.ar    1  UNL1        0.0990
     25 C         141.1845  141.4544  168.0391 C.ar    1  UNL1        0.0227
     26 C         139.9439  140.7400  168.4871 C.ar    1  UNL1        0.0114
     27 C         135.8506  138.5787  171.2841 C.3     1  UNL1        0.0903
     28 C         137.0911  139.2931  170.8361 C.1     1  UNL1       -0.0853
     29 C         138.3317  140.0074  170.3881 C.1     1  UNL1       -0.0628
@<TRIPOS>BOND
     1    27    28    1
     2    28    29    3
     3    29    21    1
     4    21    22   ar
     5    22    23   ar
     6    23    24   ar
     7    24    25   ar
     8    25     1    1
     9     1     2   ar
    10     2     3   ar
    11     3     9    1
    12     9    18    1
    13    18    19    1
    14    19    20    1
    15     9    10    1
    16    10    11    2
    17    11    12    1
    18    11    13    1
    19    13    14    1
    20    13    15    2
    21     3     4   ar
    22     4     5   ar
    23     5     6   ar
    24     6     7    1
    25    25    26   ar
    26    26    21   ar
    27     6     1   ar
    28    15     9    1
    29    20    18    1
    30    14    16    1
    31    14    17    1
    32     7     8    1
@<TRIPOS>MOLECULE
*****
 29 32 0 0 0
SMALL
GASTEIGER

@<TRIPOS>ATOM
      1 C         142.2068  140.2372  167.0240 C.ar    1  UNL1        0.0351
      2 C         142.1880  140.7891  165.6293 C.ar    1  UNL1        0.0048
      3 C         143.0269  140.1541  164.5601 C.ar    1  UNL1        0.0439
      4 C         143.8844  138.9672  164.8855 C.ar    1  UNL1        0.0048
      5 C         143.9032  138.4153  166.2803 C.ar    1  UNL1        0.0365
      6 C         143.0644  139.0503  167.3494 C.ar    1  UNL1        0.1336
      7 O         143.0831  138.4985  168.7442 O.3     1  UNL1       -0.5055
      8 H         143.6188  137.7571  168.9475 H       1  UNL1        0.2922
      9 C         143.0081  140.7059  163.1654 C.3     1  UNL1        0.2764
     10 N         143.2458  141.4124  161.8638 N.2     1  UNL1       -0.2227
     11 C         142.1698  140.9941  160.9061 C.2     1  UNL1        0.1396
     12 C         142.0223  141.4592  159.4876 C.3     1  UNL1        0.0597
     13 C         141.2670  140.0291  161.6159 C.2     1  UNL1        0.3285
     14 N         140.0583  139.3598  161.0319 N.pl3   1  UNL1       -0.2454
     15 N         141.7851  139.8510  163.0123 N.2     1  UNL1       -0.0450
     16 H         139.7968  139.5417  160.1003 H       1  UNL1        0.2885
     17 H         139.5266  138.7385  161.5801 H       1  UNL1        0.2885
     18 C         144.2350  141.4455  163.6102 C.3     1  UNL1        0.0715
     19 C         145.7211  141.6433  163.5628 C.3     1  UNL1        0.0068
     20 C         144.8739  142.5285  164.4280 C.3     1  UNL1        0.0068
     21 C         139.3520  140.7700  169.7288 C.ar    1  UNL1        0.0608
     22 C         139.6904  142.1420  170.2316 C.ar    1  UNL1        0.1071
     23 N         140.8676  142.8792  169.6652 N.ar    1  UNL1       -0.2417
     24 C         141.7064  142.2443  168.5960 C.ar    1  UNL1        0.0990
     25 C         141.3680  140.8722  168.0932 C.ar    1  UNL1        0.0227
     26 C         140.1908  140.1350  168.6596 C.ar    1  UNL1        0.0114
     27 C         135.8205  138.5585  171.4281 C.3     1  UNL1        0.0903
     28 C         136.9976  139.2956  170.8617 C.1     1  UNL1       -0.0853
     29 C         138.1748  140.0328  170.2952 C.1     1  UNL1       -0.0628
@<TRIPOS>BOND
     1    27    28    1
     2    28    29    3
     3    29    21    1
     4    21    22   ar
     5    22    23   ar
     6    23    24   ar
     7    24    25   ar
     8    25     1    1
     9     1     2   ar
    10     2     3   ar
    11     3     9    1
    12     9    18    1
    13    18    19    1
    14    19    20    1
    15     9    10    1
    16    10    11    2
    17    11    12    1
    18    11    13    1
    19    13    14    1
    20    13    15    2
    21     3     4   ar
    22     4     5   ar
    23     5     6   ar
    24     6     7    1
    25    25    26   ar
    26    26    21   ar
    27     6     1   ar
    28    15     9    1
    29    20    18    1
    30    14    16    1
    31    14    17    1
    32     7     8    1
@<TRIPOS>MOLECULE
*****
 29 32 0 0 0
SMALL
GASTEIGER

@<TRIPOS>ATOM
      1 C         142.0452  140.1103  166.9488 C.ar    1  UNL1        0.0351
      2 C         141.8765  140.5551  165.5263 C.ar    1  UNL1        0.0048
      3 C         142.6783  139.9061  164.4373 C.ar    1  UNL1        0.0439
      4 C         143.6489  138.8121  164.7709 C.ar    1  UNL1        0.0048
      5 C         143.8176  138.3673  166.1935 C.ar    1  UNL1        0.0365
      6 C         143.0158  139.0163  167.2824 C.ar    1  UNL1        0.1336
      7 O         143.1845  138.5715  168.7050 O.3     1  UNL1       -0.5055
      8 H         143.7908  137.8881  168.9134 H       1  UNL1        0.2922
      9 C         142.5096  140.3509  163.0148 C.3     1  UNL1        0.2764
     10 N         142.1234  140.5701  161.5820 N.2     1  UNL1       -0.2227
     11 C         142.9601  141.6922  161.0429 C.2     1  UNL1        0.1396
     12 C         142.9035  142.2433  159.6489 C.3     1  UNL1        0.0597
     13 C         143.8634  142.1666  162.1424 C.2     1  UNL1        0.3285
     14 N         144.8686  143.2753  162.0410 N.pl3   1  UNL1       -0.2454
     15 N         143.5850  141.3376  163.3611 N.2     1  UNL1       -0.0450
     16 H         144.9790  143.7637  161.1934 H       1  UNL1        0.2885
     17 H         145.4180  143.5146  162.8222 H       1  UNL1        0.2885
     18 C         141.4695  139.2712  162.9658 C.3     1  UNL1        0.0715
     19 C         140.0419  138.8350  163.1138 C.3     1  UNL1        0.0068
     20 C         141.0955  137.8374  162.7331 C.3     1  UNL1        0.0068
     21 C         139.2689  140.6893  169.7249 C.ar    1  UNL1        0.0608
     22 C         139.6397  142.0574  170.2156 C.ar    1  UNL1        0.1071
     23 N         140.8124  142.7764  169.6175 N.ar    1  UNL1       -0.2417
     24 C         141.6142  142.1274  168.5285 C.ar    1  UNL1        0.0990
     25 C         141.2434  140.7594  168.0378 C.ar    1  UNL1        0.0227
     26 C         140.0707  140.0403  168.6359 C.ar    1  UNL1        0.0114
     27 C         135.7508  138.5322  171.5193 C.3     1  UNL1        0.0903
     28 C         136.9235  139.2513  170.9212 C.1     1  UNL1       -0.0853
     29 C         138.0962  139.9703  170.3230 C.1     1  UNL1       -0.0628
@<TRIPOS>BOND
     1    27    28    1
     2    28    29    3
     3    29    21    1
     4    21    22   ar
     5    22    23   ar
     6    23    24   ar
     7    24    25   ar
     8    25     1    1
     9     1     2   ar
    10     2     3   ar
    11     3     9    1
    12     9    18    1
    13    18    19    1
    14    19    20    1
    15     9    10    1
    16    10    11    2
    17    11    12    1
    18    11    13    1
    19    13    14    1
    20    13    15    2
    21     3     4   ar
    22     4     5   ar
    23     5     6   ar
    24     6     7    1
    25    25    26   ar
    26    26    21   ar
    27     6     1   ar
    28    15     9    1
    29    20    18    1
    30    14    16    1
    31    14    17    1
    32     7     8    1
@<TRIPOS>MOLECULE
*****
 29 32 0 0 0
SMALL
GASTEIGER

@<TRIPOS>ATOM
      1 C         139.4059  141.5544  164.7816 C.ar    1  UNL1        0.0351
      2 C         140.4872  141.2506  165.7758 C.ar    1  UNL1        0.0048
      3 C         140.3703  140.0501  166.6677 C.ar    1  UNL1        0.0439
      4 C         139.1721  139.1535  166.5652 C.ar    1  UNL1        0.0048
      5 C         138.0908  139.4574  165.5709 C.ar    1  UNL1        0.0365
      6 C         138.2077  140.6579  164.6792 C.ar    1  UNL1        0.1336
      7 O         137.1264  140.9618  163.6849 O.3     1  UNL1       -0.5055
      8 H         136.3780  140.4017  163.6209 H       1  UNL1        0.2922
      9 C         141.4516  139.7463  167.6619 C.3     1  UNL1        0.2764
     10 N         142.6982  139.3616  168.4022 N.2     1  UNL1       -0.2227
     11 C         142.4518  139.5740  169.8664 C.2     1  UNL1        0.1396
     12 C         143.4322  139.3158  170.9720 C.3     1  UNL1        0.0597
     13 C         141.0531  140.0900  170.0312 C.2     1  UNL1        0.3285
     14 N         140.3891  140.4383  171.3303 N.pl3   1  UNL1       -0.2454
     15 N         140.4349  140.1964  168.6686 N.2     1  UNL1       -0.0450
     16 H         140.8797  140.3340  172.1774 H       1  UNL1        0.2885
     17 H         139.4626  140.7713  171.3358 H       1  UNL1        0.2885
     18 C         142.2422  139.3596  166.4472 C.3     1  UNL1        0.0715
     19 C         143.3089  139.6688  165.4389 C.3     1  UNL1        0.0068
     20 C         142.5451  138.3808  165.3517 C.3     1  UNL1        0.0068
     21 C         140.4817  143.8896  161.7584 C.ar    1  UNL1        0.0608
     22 C         139.7566  145.1557  162.1062 C.ar    1  UNL1        0.1071
     23 N         138.9146  145.2215  163.3459 N.ar    1  UNL1       -0.2417
     24 C         138.7977  144.0211  164.2377 C.ar    1  UNL1        0.0990
     25 C         139.5228  142.7549  163.8898 C.ar    1  UNL1        0.0227
     26 C         140.3648  142.6892  162.6502 C.ar    1  UNL1        0.0114
     27 C         143.0076  143.6923  158.0394 C.3     1  UNL1        0.0903
     28 C         142.1656  143.7580  159.2791 C.1     1  UNL1       -0.0853
     29 C         141.3236  143.8238  160.5187 C.1     1  UNL1       -0.0628
@<TRIPOS>BOND
     1    27    28    1
     2    28    29    3
     3    29    21    1
     4    21    22   ar
     5    22    23   ar
     6    23    24   ar
     7    24    25   ar
     8    25     1    1
     9     1     2   ar
    10     2     3   ar
    11     3     9    1
    12     9    18    1
    13    18    19    1
    14    19    20    1
    15     9    10    1
    16    10    11    2
    17    11    12    1
    18    11    13    1
    19    13    14    1
    20    13    15    2
    21     3     4   ar
    22     4     5   ar
    23     5     6   ar
    24     6     7    1
    25    25    26   ar
    26    26    21   ar
    27     6     1   ar
    28    15     9    1
    29    20    18    1
    30    14    16    1
    31    14    17    1
    32     7     8    1
@<TRIPOS>MOLECULE
*****
 29 32 0 0 0
SMALL
GASTEIGER

@<TRIPOS>ATOM
      1 C         141.9692  140.6197  165.9488 C.ar    1  UNL1        0.0351
      2 C         141.6423  141.9569  165.3530 C.ar    1  UNL1        0.0048
      3 C         141.7763  142.1723  163.8746 C.ar    1  UNL1        0.0439
      4 C         142.2372  141.0505  162.9920 C.ar    1  UNL1        0.0048
      5 C         142.5642  139.7132  163.5878 C.ar    1  UNL1        0.0365
      6 C         142.4302  139.4979  165.0662 C.ar    1  UNL1        0.1336
      7 O         142.7572  138.1606  165.6620 O.3     1  UNL1       -0.5055
      8 H         143.0452  137.4598  165.1107 H       1  UNL1        0.2922
      9 C         141.4493  143.5095  163.2788 C.3     1  UNL1        0.2764
     10 N         141.4257  144.9071  162.7347 N.2     1  UNL1       -0.2227
     11 C         140.0284  145.2023  162.2760 C.2     1  UNL1        0.1396
     12 C         139.5542  146.4872  161.6640 C.3     1  UNL1        0.0597
     13 C         139.1884  143.9872  162.5366 C.2     1  UNL1        0.3285
     14 N         137.7269  143.8436  162.2311 N.pl3   1  UNL1       -0.2454
     15 N         140.0666  142.9410  163.1564 N.2     1  UNL1       -0.0450
     16 H         137.2339  144.5908  161.8216 H       1  UNL1        0.2885
     17 H         137.2607  143.0020  162.4402 H       1  UNL1        0.2885
     18 C         142.9003  143.7984  163.5258 C.3     1  UNL1        0.0715
     19 C         144.3239  143.7971  163.0531 C.3     1  UNL1        0.0068
     20 C         143.9900  144.3002  164.4262 C.3     1  UNL1        0.0068
     21 C         142.4332  139.0597  169.5684 C.ar    1  UNL1        0.0608
     22 C         141.5673  139.9734  170.3840 C.ar    1  UNL1        0.1071
     23 N         140.8353  141.1026  169.7212 N.ar    1  UNL1       -0.2417
     24 C         140.9693  141.3180  168.2428 C.ar    1  UNL1        0.0990
     25 C         141.8352  140.4043  167.4272 C.ar    1  UNL1        0.0227
     26 C         142.5672  139.2751  168.0900 C.ar    1  UNL1        0.0114
     27 C         144.6291  135.6722  171.5566 C.3     1  UNL1        0.0903
     28 C         143.8971  136.8014  170.8939 C.1     1  UNL1       -0.0853
     29 C         143.1652  137.9305  170.2311 C.1     1  UNL1       -0.0628
@<TRIPOS>BOND
     1    27    28    1
     2    28    29    3
     3    29    21    1
     4    21    22   ar
     5    22    23   ar
     6    23    24   ar
     7    24    25   ar
     8    25     1    1
     9     1     2   ar
    10     2     3   ar
    11     3     9    1
    12     9    18    1
    13    18    19    1
    14    19    20    1
    15     9    10    1
    16    10    11    2
    17    11    12    1
    18    11    13    1
    19    13    14    1
    20    13    15    2
    21     3     4   ar
    22     4     5   ar
    23     5     6   ar
    24     6     7    1
    25    25    26   ar
    26    26    21   ar
    27     6     1   ar
    28    15     9    1
    29    20    18    1
    30    14    16    1
    31    14    17    1
    32     7     8    1
@<TRIPOS>MOLECULE
*****
 29 32 0 0 0
SMALL
GASTEIGER

@<TRIPOS>ATOM
      1 C         140.3205  139.2569  163.9117 C.ar    1  UNL1        0.0351
      2 C         140.2100  140.2406  165.0387 C.ar    1  UNL1        0.0048
      3 C         141.1021  140.1109  166.2377 C.ar    1  UNL1        0.0439
      4 C         142.1047  138.9975  166.3096 C.ar    1  UNL1        0.0048
      5 C         142.2151  138.0137  165.1825 C.ar    1  UNL1        0.0365
      6 C         141.3231  138.1435  163.9836 C.ar    1  UNL1        0.1336
      7 O         141.4335  137.1597  162.8566 O.3     1  UNL1       -0.5055
      8 H         142.0598  136.4642  162.9015 H       1  UNL1        0.2922
      9 C         140.9916  141.0946  167.3646 C.3     1  UNL1        0.2764
     10 N         141.0874  142.2441  168.3234 N.2     1  UNL1       -0.2227
     11 C         140.1830  141.9556  169.4848 C.2     1  UNL1        0.1396
     12 C         139.9706  142.8397  170.6778 C.3     1  UNL1        0.0597
     13 C         139.5283  140.6278  169.2438 C.2     1  UNL1        0.3285
     14 N         138.5462  139.9509  170.1534 N.pl3   1  UNL1       -0.2454
     15 N         140.0280  140.0956  167.9334 N.2     1  UNL1       -0.0450
     16 H         138.2784  140.3822  170.9969 H       1  UNL1        0.2885
     17 H         138.1695  139.0754  169.9069 H       1  UNL1        0.2885
     18 C         141.9784  141.8879  166.5602 C.3     1  UNL1        0.0715
     19 C         142.2745  142.8364  165.4366 C.3     1  UNL1        0.0068
     20 C         143.3912  142.3134  166.2906 C.3     1  UNL1        0.0068
     21 C         138.7880  140.5978  160.5053 C.ar    1  UNL1        0.0608
     22 C         137.6444  139.6461  160.3150 C.ar    1  UNL1        0.1071
     23 N         137.3928  138.5646  161.3235 N.ar    1  UNL1       -0.2417
     24 C         138.2848  138.4349  162.5224 C.ar    1  UNL1        0.0990
     25 C         139.4284  139.3866  162.7128 C.ar    1  UNL1        0.0227
     26 C         139.6801  140.4680  161.7042 C.ar    1  UNL1        0.0114
     27 C         139.5429  143.8421  157.4797 C.3     1  UNL1        0.0903
     28 C         139.2913  142.7606  158.4882 C.1     1  UNL1       -0.0853
     29 C         139.0397  141.6792  159.4968 C.1     1  UNL1       -0.0628
@<TRIPOS>BOND
     1    27    28    1
     2    28    29    3
     3    29    21    1
     4    21    22   ar
     5    22    23   ar
     6    23    24   ar
     7    24    25   ar
     8    25     1    1
     9     1     2   ar
    10     2     3   ar
    11     3     9    1
    12     9    18    1
    13    18    19    1
    14    19    20    1
    15     9    10    1
    16    10    11    2
    17    11    12    1
    18    11    13    1
    19    13    14    1
    20    13    15    2
    21     3     4   ar
    22     4     5   ar
    23     5     6   ar
    24     6     7    1
    25    25    26   ar
    26    26    21   ar
    27     6     1   ar
    28    15     9    1
    29    20    18    1
    30    14    16    1
    31    14    17    1
    32     7     8    1
@<TRIPOS>MOLECULE
*****
 29 32 0 0 0
SMALL
GASTEIGER

@<TRIPOS>ATOM
      1 C         142.1178  141.3465  166.2061 C.ar    1  UNL1        0.0351
      2 C         141.3968  140.7997  165.0098 C.ar    1  UNL1        0.0048
      3 C         141.7341  141.3011  163.6369 C.ar    1  UNL1        0.0439
      4 C         142.7924  142.3493  163.4603 C.ar    1  UNL1        0.0048
      5 C         143.5134  142.8961  164.6567 C.ar    1  UNL1        0.0365
      6 C         143.1761  142.3947  166.0295 C.ar    1  UNL1        0.1336
      7 O         143.8972  142.9415  167.2259 O.3     1  UNL1       -0.5055
      8 H         144.5583  143.5963  167.1156 H       1  UNL1        0.2922
      9 C         141.0131  140.7543  162.4406 C.3     1  UNL1        0.2764
     10 N         140.5007  139.9744  161.2662 N.2     1  UNL1       -0.2227
     11 C         139.3366  140.7215  160.6860 C.2     1  UNL1        0.1396
     12 C         138.5224  140.3009  159.4984 C.3     1  UNL1        0.0597
     13 C         139.1294  141.9630  161.5019 C.2     1  UNL1        0.3285
     14 N         138.0718  143.0019  161.2734 N.pl3   1  UNL1       -0.2454
     15 N         140.1655  141.9833  162.5863 N.2     1  UNL1       -0.0450
     16 H         137.4335  142.8996  160.5309 H       1  UNL1        0.2885
     17 H         138.0159  143.7861  161.8660 H       1  UNL1        0.2885
     18 C         142.0113  139.6396  162.5451 C.3     1  UNL1        0.0715
     19 C         143.4169  139.1367  162.3991 C.3     1  UNL1        0.0068
     20 C         142.3348  138.2119  162.8720 C.3     1  UNL1        0.0068
     21 C         142.2309  139.2177  169.5536 C.ar    1  UNL1        0.0608
     22 C         141.1061  139.8422  170.3248 C.ar    1  UNL1        0.1071
     23 N         140.3186  140.9682  169.7231 N.ar    1  UNL1       -0.2417
     24 C         140.6558  141.4696  168.3503 C.ar    1  UNL1        0.0990
     25 C         141.7805  140.8451  167.5790 C.ar    1  UNL1        0.0227
     26 C         142.5681  139.7191  168.1807 C.ar    1  UNL1        0.0114
     27 C         144.5934  135.8398  171.3585 C.3     1  UNL1        0.0903
     28 C         143.8059  136.9657  170.7569 C.1     1  UNL1       -0.0853
     29 C         143.0184  138.0917  170.1552 C.1     1  UNL1       -0.0628
@<TRIPOS>BOND
     1    27    28    1
     2    28    29    3
     3    29    21    1
     4    21    22   ar
     5    22    23   ar
     6    23    24   ar
     7    24    25   ar
     8    25     1    1
     9     1     2   ar
    10     2     3   ar
    11     3     9    1
    12     9    18    1
    13    18    19    1
    14    19    20    1
    15     9    10    1
    16    10    11    2
    17    11    12    1
    18    11    13    1
    19    13    14    1
    20    13    15    2
    21     3     4   ar
    22     4     5   ar
    23     5     6   ar
    24     6     7    1
    25    25    26   ar
    26    26    21   ar
    27     6     1   ar
    28    15     9    1
    29    20    18    1
    30    14    16    1
    31    14    17    1
    32     7     8    1
@<TRIPOS>MOLECULE
*****
 29 32 0 0 0
SMALL
GASTEIGER

@<TRIPOS>ATOM
      1 C         141.8829  139.4025  163.5468 C.ar    1  UNL1        0.0351
      2 C         141.8846  140.2700  164.7705 C.ar    1  UNL1        0.0048
      3 C         143.1837  140.6639  165.4087 C.ar    1  UNL1        0.0439
      4 C         144.4810  140.1903  164.8233 C.ar    1  UNL1        0.0048
      5 C         144.4792  139.3227  163.5996 C.ar    1  UNL1        0.0365
      6 C         143.1801  138.9289  162.9614 C.ar    1  UNL1        0.1336
      7 O         143.1783  138.0613  161.7376 O.3     1  UNL1       -0.5055
      8 H         143.9887  137.7654  161.3719 H       1  UNL1        0.2922
      9 C         143.1855  141.5314  166.6324 C.3     1  UNL1        0.2764
     10 N         143.2625  142.6268  167.6542 N.2     1  UNL1       -0.2227
     11 C         142.9497  142.0324  168.9954 C.2     1  UNL1        0.1396
     12 C         142.9135  142.7711  170.3005 C.3     1  UNL1        0.0597
     13 C         142.6793  140.5697  168.8025 C.2     1  UNL1        0.3285
     14 N         142.3253  139.5888  169.8807 N.pl3   1  UNL1       -0.2454
     15 N         142.8250  140.2601  167.3420 N.2     1  UNL1       -0.0450
     16 H         142.2529  139.8895  170.8153 H       1  UNL1        0.2885
     17 H         142.1653  138.6443  169.6537 H       1  UNL1        0.2885
     18 C         143.5456  142.6215  165.6669 C.3     1  UNL1        0.0715
     19 C         144.5471  143.5972  165.1238 C.3     1  UNL1        0.0068
     20 C         143.1678  143.5337  164.5377 C.3     1  UNL1        0.0068
     21 C         138.8313  139.2935  161.0118 C.ar    1  UNL1        0.0608
     22 C         137.9858  138.2209  161.6320 C.ar    1  UNL1        0.1071
     23 N         138.4393  137.5422  162.8904 N.ar    1  UNL1       -0.2417
     24 C         139.7383  137.9361  163.5287 C.ar    1  UNL1        0.0990
     25 C         140.5838  139.0086  162.9085 C.ar    1  UNL1        0.0227
     26 C         140.1303  139.6874  161.6501 C.ar    1  UNL1        0.0114
     27 C         137.4708  141.3297  157.2365 C.3     1  UNL1        0.0903
     28 C         137.9243  140.6510  158.4950 C.1     1  UNL1       -0.0853
     29 C         138.3778  139.9723  159.7534 C.1     1  UNL1       -0.0628
@<TRIPOS>BOND
     1    27    28    1
     2    28    29    3
     3    29    21    1
     4    21    22   ar
     5    22    23   ar
     6    23    24   ar
     7    24    25   ar
     8    25     1    1
     9     1     2   ar
    10     2     3   ar
    11     3     9    1
    12     9    18    1
    13    18    19    1
    14    19    20    1
    15     9    10    1
    16    10    11    2
    17    11    12    1
    18    11    13    1
    19    13    14    1
    20    13    15    2
    21     3     4   ar
    22     4     5   ar
    23     5     6   ar
    24     6     7    1
    25    25    26   ar
    26    26    21   ar
    27     6     1   ar
    28    15     9    1
    29    20    18    1
    30    14    16    1
    31    14    17    1
    32     7     8    1
