@<TRIPOS>MOLECULE
*****
 28 30 0 0 0
SMALL
GASTEIGER

@<TRIPOS>ATOM
      1 C         140.1152  144.2412  158.9366 C.ar    1  UNL1        0.0518
      2 C         140.4874  143.0080  158.1680 C.ar    1  UNL1        0.0148
      3 C         140.8872  143.1151  156.7263 C.ar    1  UNL1        0.0025
      4 C         140.9148  144.4553  156.0532 C.ar    1  UNL1        0.0148
      5 C         140.5426  145.6884  156.8218 C.ar    1  UNL1        0.0518
      6 C         140.1428  145.5814  158.2635 C.ar    1  UNL1        0.0293
      7 C         140.7421  144.3152  161.4569 C.2     1  UNL1        0.2495
      8 O         142.1686  144.6032  161.0936 O.2     1  UNL1       -0.2698
      9 N         139.7154  144.1342  160.3785 N.am    1  UNL1       -0.2803
     10 H         138.7791  143.9451  160.6169 H       1  UNL1        0.1552
     11 C         141.5974  142.4710  166.2389 C.3     1  UNL1        0.0310
     12 C         140.7699  143.2861  165.2897 C.ar    1  UNL1       -0.0217
     13 C         139.5427  143.9941  165.7822 C.ar    1  UNL1       -0.0043
     14 C         138.7152  144.8091  164.8330 C.ar    1  UNL1       -0.0002
     15 C         139.1150  144.9161  163.3912 C.ar    1  UNL1        0.0045
     16 C         140.3422  144.2081  162.8987 C.ar    1  UNL1        0.0534
     17 C         141.1697  143.3931  163.8479 C.ar    1  UNL1        0.0003
     18 N         140.5702  147.0286  156.1486 N.am    1  UNL1       -0.2803
     19 C         139.4179  147.4612  155.2913 C.2     1  UNL1        0.2495
     20 O         138.2380  146.5535  155.1070 O.2     1  UNL1       -0.2698
     21 H         141.3446  147.6244  156.2696 H       1  UNL1        0.1552
     22 C         139.4455  148.8014  154.6181 C.ar    1  UNL1        0.0545
     23 C         140.0306  148.9384  153.2437 C.ar    1  UNL1        0.0046
     24 C         140.0582  150.2786  152.5706 C.ar    1  UNL1        0.0010
     25 C         139.5007  151.4818  153.2719 C.ar    1  UNL1        0.0114
     26 C         138.9157  151.3447  154.6462 C.ar    1  UNL1        0.0578
     27 CL        138.3583  152.5478  155.3475 Cl      1  UNL1       -0.0822
     28 C         138.8881  150.0045  155.3194 C.ar    1  UNL1        0.0159
@<TRIPOS>BOND
     1    11    12    1
     2    12    13   ar
     3    13    14   ar
     4    14    15   ar
     5    15    16   ar
     6    16     7    1
     7     7     8    2
     8     7     9   am
     9     9     1    1
    10     1     2   ar
    11     2     3   ar
    12     3     4   ar
    13     4     5   ar
    14     5    18    1
    15    18    19   am
    16    19    20    2
    17    19    22    1
    18    22    23   ar
    19    23    24   ar
    20    24    25   ar
    21    25    26   ar
    22    26    27    1
    23    26    28   ar
    24     5     6   ar
    25    16    17   ar
    26    17    12   ar
    27     6     1   ar
    28    28    22   ar
    29     9    10    1
    30    18    21    1
@<TRIPOS>MOLECULE
*****
 28 30 0 0 0
SMALL
GASTEIGER

@<TRIPOS>ATOM
      1 C         140.5793  145.6851  156.7422 C.ar    1  UNL1        0.0518
      2 C         140.9713  144.4579  155.9739 C.ar    1  UNL1        0.0148
      3 C         140.9537  143.1161  156.6440 C.ar    1  UNL1        0.0025
      4 C         140.5441  143.0014  158.0824 C.ar    1  UNL1        0.0148
      5 C         140.1521  144.2285  158.8507 C.ar    1  UNL1        0.0518
      6 C         140.1697  145.5704  158.1806 C.ar    1  UNL1        0.0293
      7 C         139.4369  147.4569  155.2237 C.2     1  UNL1        0.2495
      8 O         138.2594  146.5449  155.0454 O.2     1  UNL1       -0.2698
      9 N         140.5968  147.0270  156.0721 N.am    1  UNL1       -0.2803
     10 H         141.3696  147.6256  156.1891 H       1  UNL1        0.1552
     11 C         138.4479  152.5568  155.3375 C.3     1  UNL1        0.0310
     12 C         138.9600  151.3488  154.6105 C.ar    1  UNL1       -0.0217
     13 C         139.4896  151.4826  153.2136 C.ar    1  UNL1       -0.0043
     14 C         140.0017  150.2746  152.4866 C.ar    1  UNL1       -0.0002
     15 C         139.9841  148.9327  153.1567 C.ar    1  UNL1        0.0045
     16 C         139.4545  148.7988  154.5536 C.ar    1  UNL1        0.0534
     17 C         138.9424  150.0069  155.2806 C.ar    1  UNL1        0.0003
     18 N         139.7425  144.1138  160.2892 N.am    1  UNL1       -0.2803
     19 C         140.7568  144.3137  161.3760 C.2     1  UNL1        0.2495
     20 O         142.1807  144.6283  161.0245 O.2     1  UNL1       -0.2698
     21 H         138.8080  143.9074  160.5199 H       1  UNL1        0.1552
     22 C         140.3472  144.1990  162.8144 C.ar    1  UNL1        0.0545
     23 C         139.0925  144.8678  163.2926 C.ar    1  UNL1        0.0046
     24 C         138.6829  144.7531  164.7310 C.ar    1  UNL1        0.0010
     25 C         139.5280  143.9696  165.6913 C.ar    1  UNL1        0.0114
     26 C         140.7826  143.3008  165.2131 C.ar    1  UNL1        0.0578
     27 CL        141.6276  142.5173  166.1733 Cl      1  UNL1       -0.0822
     28 C         141.1922  143.4155  163.7747 C.ar    1  UNL1        0.0159
@<TRIPOS>BOND
     1    11    12    1
     2    12    13   ar
     3    13    14   ar
     4    14    15   ar
     5    15    16   ar
     6    16     7    1
     7     7     8    2
     8     7     9   am
     9     9     1    1
    10     1     2   ar
    11     2     3   ar
    12     3     4   ar
    13     4     5   ar
    14     5    18    1
    15    18    19   am
    16    19    20    2
    17    19    22    1
    18    22    23   ar
    19    23    24   ar
    20    24    25   ar
    21    25    26   ar
    22    26    27    1
    23    26    28   ar
    24     5     6   ar
    25    16    17   ar
    26    17    12   ar
    27     6     1   ar
    28    28    22   ar
    29     9    10    1
    30    18    21    1
@<TRIPOS>MOLECULE
*****
 28 30 0 0 0
SMALL
GASTEIGER

@<TRIPOS>ATOM
      1 C         139.5482  143.7211  162.4391 C.ar    1  UNL1        0.0518
      2 C         138.0957  144.0602  162.5974 C.ar    1  UNL1        0.0148
      3 C         137.4642  144.0376  163.9578 C.ar    1  UNL1        0.0025
      4 C         138.2853  143.6759  165.1598 C.ar    1  UNL1        0.0148
      5 C         139.7378  143.3369  165.0015 C.ar    1  UNL1        0.0518
      6 C         140.3693  143.3594  163.6411 C.ar    1  UNL1        0.0293
      7 C         140.2025  145.0153  160.2833 C.2     1  UNL1        0.2495
      8 O         139.5937  146.2643  160.8484 O.2     1  UNL1       -0.2698
      9 N         140.1797  143.7437  161.0786 N.am    1  UNL1       -0.2803
     10 H         140.5793  142.9239  160.7077 H       1  UNL1        0.1552
     11 C         140.3440  146.8328  155.4175 C.3     1  UNL1        0.0310
     12 C         140.9047  145.9467  156.4900 C.ar    1  UNL1       -0.0217
     13 C         142.0969  145.0831  156.2021 C.ar    1  UNL1       -0.0043
     14 C         142.6576  144.1969  157.2746 C.ar    1  UNL1       -0.0002
     15 C         142.0261  144.1743  158.6350 C.ar    1  UNL1        0.0045
     16 C         140.8340  145.0378  158.9229 C.ar    1  UNL1        0.0534
     17 C         140.2733  145.9240  157.8504 C.ar    1  UNL1        0.0003
     18 N         140.5589  142.9752  166.2036 N.am    1  UNL1       -0.2803
     19 C         140.5271  141.5747  166.7399 C.2     1  UNL1        0.2495
     20 O         139.6741  140.5358  166.0740 O.2     1  UNL1       -0.2698
     21 H         141.1187  143.6570  166.6406 H       1  UNL1        0.1552
     22 C         141.3482  141.2130  167.9419 C.ar    1  UNL1        0.0545
     23 C         141.0333  139.9689  168.7186 C.ar    1  UNL1        0.0046
     24 C         141.8544  139.6072  169.9207 C.ar    1  UNL1        0.0010
     25 C         142.9904  140.4897  170.3461 C.ar    1  UNL1        0.0114
     26 C         143.3052  141.7337  169.5695 C.ar    1  UNL1        0.0578
     27 CL        144.4411  142.6161  169.9950 Cl      1  UNL1       -0.0822
     28 C         142.4841  142.0954  168.3674 C.ar    1  UNL1        0.0159
@<TRIPOS>BOND
     1    11    12    1
     2    12    13   ar
     3    13    14   ar
     4    14    15   ar
     5    15    16   ar
     6    16     7    1
     7     7     8    2
     8     7     9   am
     9     9     1    1
    10     1     2   ar
    11     2     3   ar
    12     3     4   ar
    13     4     5   ar
    14     5    18    1
    15    18    19   am
    16    19    20    2
    17    19    22    1
    18    22    23   ar
    19    23    24   ar
    20    24    25   ar
    21    25    26   ar
    22    26    27    1
    23    26    28   ar
    24     5     6   ar
    25    16    17   ar
    26    17    12   ar
    27     6     1   ar
    28    28    22   ar
    29     9    10    1
    30    18    21    1
@<TRIPOS>MOLECULE
*****
 28 30 0 0 0
SMALL
GASTEIGER

@<TRIPOS>ATOM
      1 C         136.9719  142.5048  155.5134 C.ar    1  UNL1        0.0518
      2 C         138.1643  141.6659  155.1605 C.ar    1  UNL1        0.0148
      3 C         139.3934  142.3110  154.5922 C.ar    1  UNL1        0.0025
      4 C         139.4301  143.7950  154.3767 C.ar    1  UNL1        0.0148
      5 C         138.2378  144.6339  154.7295 C.ar    1  UNL1        0.0518
      6 C         137.0087  143.9888  155.2979 C.ar    1  UNL1        0.0293
      7 C         134.6451  141.4019  155.1678 C.2     1  UNL1        0.2495
      8 O         134.7765  141.5892  153.6854 O.2     1  UNL1       -0.2698
      9 N         135.7427  141.8597  156.0818 N.am    1  UNL1       -0.2803
     10 H         135.6565  141.7367  157.0548 H       1  UNL1        0.1552
     11 C         129.4816  141.2779  155.7366 C.3     1  UNL1        0.0310
     12 C         130.8342  140.6948  156.0206 C.ar    1  UNL1       -0.0217
     13 C         130.9576  139.4667  156.8729 C.ar    1  UNL1       -0.0043
     14 C         132.3101  138.8837  157.1569 C.ar    1  UNL1       -0.0002
     15 C         133.5393  139.5287  156.5886 C.ar    1  UNL1        0.0045
     16 C         133.4159  140.7568  155.7362 C.ar    1  UNL1        0.0534
     17 C         132.0633  141.3398  155.4523 C.ar    1  UNL1        0.0003
     18 N         138.2745  146.1179  154.5140 N.am    1  UNL1       -0.2803
     19 C         139.0132  146.9977  155.4784 C.2     1  UNL1        0.2495
     20 O         139.7152  146.3936  156.6584 O.2     1  UNL1       -0.2698
     21 H         137.8138  146.5144  153.7396 H       1  UNL1        0.1552
     22 C         139.0500  148.4817  155.2629 C.ar    1  UNL1        0.0545
     23 C         138.4651  149.4037  156.2916 C.ar    1  UNL1        0.0046
     24 C         138.5019  150.8876  156.0760 C.ar    1  UNL1        0.0010
     25 C         139.1235  151.4497  154.8319 C.ar    1  UNL1        0.0114
     26 C         139.7083  150.5277  153.8034 C.ar    1  UNL1        0.0578
     27 CL        140.3299  151.0898  152.5593 Cl      1  UNL1       -0.0822
     28 C         139.6716  149.0437  154.0189 C.ar    1  UNL1        0.0159
@<TRIPOS>BOND
     1    11    12    1
     2    12    13   ar
     3    13    14   ar
     4    14    15   ar
     5    15    16   ar
     6    16     7    1
     7     7     8    2
     8     7     9   am
     9     9     1    1
    10     1     2   ar
    11     2     3   ar
    12     3     4   ar
    13     4     5   ar
    14     5    18    1
    15    18    19   am
    16    19    20    2
    17    19    22    1
    18    22    23   ar
    19    23    24   ar
    20    24    25   ar
    21    25    26   ar
    22    26    27    1
    23    26    28   ar
    24     5     6   ar
    25    16    17   ar
    26    17    12   ar
    27     6     1   ar
    28    28    22   ar
    29     9    10    1
    30    18    21    1
@<TRIPOS>MOLECULE
*****
 28 30 0 0 0
SMALL
GASTEIGER

@<TRIPOS>ATOM
      1 C         139.9391  143.8802  163.2839 C.ar    1  UNL1        0.0518
      2 C         139.6369  145.3415  163.1321 C.ar    1  UNL1        0.0148
      3 C         139.9987  146.0543  161.8628 C.ar    1  UNL1        0.0025
      4 C         140.6626  145.3056  160.7454 C.ar    1  UNL1        0.0148
      5 C         140.9648  143.8443  160.8972 C.ar    1  UNL1        0.0518
      6 C         140.6030  143.1315  162.1664 C.ar    1  UNL1        0.0293
      7 C         140.6494  142.7835  165.5295 C.2     1  UNL1        0.2495
      8 O         142.0832  143.1124  165.2366 O.2     1  UNL1       -0.2698
      9 N         139.5773  143.1674  164.5532 N.am    1  UNL1       -0.2803
     10 H         138.6362  142.9515  164.7455 H       1  UNL1        0.1552
     11 C         140.1295  142.7841  170.6996 C.3     1  UNL1        0.0310
     12 C         140.0277  142.0710  169.3839 C.ar    1  UNL1       -0.0217
     13 C         139.5641  140.6453  169.3374 C.ar    1  UNL1       -0.0043
     14 C         139.4623  139.9322  168.0217 C.ar    1  UNL1       -0.0002
     15 C         139.8240  140.6449  166.7524 C.ar    1  UNL1        0.0045
     16 C         140.2876  142.0707  166.7989 C.ar    1  UNL1        0.0534
     17 C         140.3894  142.7838  168.1146 C.ar    1  UNL1        0.0003
     18 N         141.6287  143.0956  159.7797 N.am    1  UNL1       -0.2803
     19 C         143.1173  142.9112  159.7809 C.2     1  UNL1        0.2495
     20 O         143.9420  143.4755  160.8996 O.2     1  UNL1       -0.2698
     21 H         141.0874  142.7253  159.0454 H       1  UNL1        0.1552
     22 C         143.7812  142.1626  158.6634 C.ar    1  UNL1        0.0545
     23 C         143.1184  140.9533  158.0731 C.ar    1  UNL1        0.0046
     24 C         143.7824  140.2047  156.9556 C.ar    1  UNL1        0.0010
     25 C         145.1091  140.6653  156.4285 C.ar    1  UNL1        0.0114
     26 C         145.7718  141.8745  157.0189 C.ar    1  UNL1        0.0578
     27 CL        147.0984  142.3351  156.4918 Cl      1  UNL1       -0.0822
     28 C         145.1078  142.6232  158.1363 C.ar    1  UNL1        0.0159
@<TRIPOS>BOND
     1    11    12    1
     2    12    13   ar
     3    13    14   ar
     4    14    15   ar
     5    15    16   ar
     6    16     7    1
     7     7     8    2
     8     7     9   am
     9     9     1    1
    10     1     2   ar
    11     2     3   ar
    12     3     4   ar
    13     4     5   ar
    14     5    18    1
    15    18    19   am
    16    19    20    2
    17    19    22    1
    18    22    23   ar
    19    23    24   ar
    20    24    25   ar
    21    25    26   ar
    22    26    27    1
    23    26    28   ar
    24     5     6   ar
    25    16    17   ar
    26    17    12   ar
    27     6     1   ar
    28    28    22   ar
    29     9    10    1
    30    18    21    1
@<TRIPOS>MOLECULE
*****
 28 30 0 0 0
SMALL
GASTEIGER

@<TRIPOS>ATOM
      1 C         140.9787  143.7747  160.8700 C.ar    1  UNL1        0.0518
      2 C         140.6450  145.2291  160.7175 C.ar    1  UNL1        0.0148
      3 C         139.9559  145.9611  161.8307 C.ar    1  UNL1        0.0025
      4 C         139.6004  145.2388  163.0963 C.ar    1  UNL1        0.0148
      5 C         139.9341  143.7844  163.2488 C.ar    1  UNL1        0.0518
      6 C         140.6233  143.0523  162.1357 C.ar    1  UNL1        0.0293
      7 C         143.1594  142.8836  159.7742 C.2     1  UNL1        0.2495
      8 O         143.9617  143.4567  160.9047 O.2     1  UNL1       -0.2698
      9 N         141.6680  143.0426  159.7569 N.am    1  UNL1       -0.2803
     10 H         141.1414  142.6664  159.0149 H       1  UNL1        0.1552
     11 C         147.1647  142.4170  156.4970 C.3     1  UNL1        0.0310
     12 C         145.8513  141.9182  157.0225 C.ar    1  UNL1       -0.0217
     13 C         145.2271  140.6873  156.4349 C.ar    1  UNL1       -0.0043
     14 C         143.9136  140.1886  156.9603 C.ar    1  UNL1       -0.0002
     15 C         143.2244  140.9206  158.0734 C.ar    1  UNL1        0.0045
     16 C         143.8486  142.1514  158.6611 C.ar    1  UNL1        0.0534
     17 C         145.1620  142.6502  158.1356 C.ar    1  UNL1        0.0003
     18 N         139.5786  143.0620  164.5144 N.am    1  UNL1       -0.2803
     19 C         140.6418  142.7561  165.5273 C.2     1  UNL1        0.2495
     20 O         142.0605  143.1725  165.2746 O.2     1  UNL1       -0.2698
     21 H         138.6474  142.7887  164.6803 H       1  UNL1        0.1552
     22 C         140.2863  142.0337  166.7930 C.ar    1  UNL1        0.0545
     23 C         139.7675  140.6275  166.7335 C.ar    1  UNL1        0.0046
     24 C         139.4120  139.9051  167.9991 C.ar    1  UNL1        0.0010
     25 C         139.5753  140.5890  169.3242 C.ar    1  UNL1        0.0114
     26 C         140.0941  141.9951  169.3836 C.ar    1  UNL1        0.0578
     27 CL        140.2575  142.6789  170.7086 Cl      1  UNL1       -0.0822
     28 C         140.4496  142.7175  168.1180 C.ar    1  UNL1        0.0159
@<TRIPOS>BOND
     1    11    12    1
     2    12    13   ar
     3    13    14   ar
     4    14    15   ar
     5    15    16   ar
     6    16     7    1
     7     7     8    2
     8     7     9   am
     9     9     1    1
    10     1     2   ar
    11     2     3   ar
    12     3     4   ar
    13     4     5   ar
    14     5    18    1
    15    18    19   am
    16    19    20    2
    17    19    22    1
    18    22    23   ar
    19    23    24   ar
    20    24    25   ar
    21    25    26   ar
    22    26    27    1
    23    26    28   ar
    24     5     6   ar
    25    16    17   ar
    26    17    12   ar
    27     6     1   ar
    28    28    22   ar
    29     9    10    1
    30    18    21    1
@<TRIPOS>MOLECULE
*****
 28 30 0 0 0
SMALL
GASTEIGER

@<TRIPOS>ATOM
      1 C         139.6061  139.6425  158.2102 C.ar    1  UNL1        0.0518
      2 C         139.1020  140.4427  157.0459 C.ar    1  UNL1        0.0148
      3 C         139.1842  139.8805  155.6578 C.ar    1  UNL1        0.0025
      4 C         139.7704  138.5180  155.4338 C.ar    1  UNL1        0.0148
      5 C         140.2745  137.7178  156.5981 C.ar    1  UNL1        0.0518
      6 C         140.1923  138.2801  157.9863 C.ar    1  UNL1        0.0293
      7 C         138.2112  140.2225  160.3240 C.2     1  UNL1        0.2495
      8 O         136.9805  139.6782  159.6612 O.2     1  UNL1       -0.2698
      9 N         139.5239  140.2047  159.5985 N.am    1  UNL1       -0.2803
     10 H         140.3316  140.5620  160.0335 H       1  UNL1        0.1552
     11 C         137.7976  144.3088  163.5069 C.3     1  UNL1        0.0310
     12 C         137.9222  142.8279  163.3037 C.ar    1  UNL1       -0.0217
     13 C         137.9647  141.9092  164.4886 C.ar    1  UNL1       -0.0043
     14 C         138.0893  140.4282  164.2854 C.ar    1  UNL1       -0.0002
     15 C         138.1714  139.8660  162.8972 C.ar    1  UNL1        0.0045
     16 C         138.1290  140.7847  161.7122 C.ar    1  UNL1        0.0534
     17 C         138.0044  142.2657  161.9155 C.ar    1  UNL1        0.0003
     18 N         140.8607  136.3554  156.3742 N.am    1  UNL1       -0.2803
     19 C         142.3393  136.1435  156.5106 C.2     1  UNL1        0.2495
     20 O         143.2318  137.2940  156.8710 O.2     1  UNL1       -0.2698
     21 H         140.2749  135.6003  156.1377 H       1  UNL1        0.1552
     22 C         142.9255  134.7810  156.2867 C.ar    1  UNL1        0.0545
     23 C         142.5863  134.0137  155.0432 C.ar    1  UNL1        0.0046
     24 C         143.1725  132.6513  154.8193 C.ar    1  UNL1        0.0010
     25 C         144.0979  132.0562  155.8389 C.ar    1  UNL1        0.0114
     26 C         144.4371  132.8235  157.0823 C.ar    1  UNL1        0.0578
     27 CL        145.3625  132.2284  158.1018 Cl      1  UNL1       -0.0822
     28 C         143.8509  134.1859  157.3062 C.ar    1  UNL1        0.0159
@<TRIPOS>BOND
     1    11    12    1
     2    12    13   ar
     3    13    14   ar
     4    14    15   ar
     5    15    16   ar
     6    16     7    1
     7     7     8    2
     8     7     9   am
     9     9     1    1
    10     1     2   ar
    11     2     3   ar
    12     3     4   ar
    13     4     5   ar
    14     5    18    1
    15    18    19   am
    16    19    20    2
    17    19    22    1
    18    22    23   ar
    19    23    24   ar
    20    24    25   ar
    21    25    26   ar
    22    26    27    1
    23    26    28   ar
    24     5     6   ar
    25    16    17   ar
    26    17    12   ar
    27     6     1   ar
    28    28    22   ar
    29     9    10    1
    30    18    21    1
@<TRIPOS>MOLECULE
*****
 28 30 0 0 0
SMALL
GASTEIGER

@<TRIPOS>ATOM
      1 C         140.2064  137.8143  156.6526 C.ar    1  UNL1        0.0518
      2 C         139.7124  138.6309  155.4954 C.ar    1  UNL1        0.0148
      3 C         139.1406  139.9974  155.7317 C.ar    1  UNL1        0.0025
      4 C         139.0628  140.5472  157.1251 C.ar    1  UNL1        0.0148
      5 C         139.5568  139.7306  158.2823 C.ar    1  UNL1        0.0518
      6 C         140.1286  138.3642  158.0460 C.ar    1  UNL1        0.0293
      7 C         142.2595  136.2292  156.5044 C.2     1  UNL1        0.2495
      8 O         143.1691  137.3770  156.8287 O.2     1  UNL1       -0.2698
      9 N         140.7782  136.4478  156.4164 N.am    1  UNL1       -0.2803
     10 H         140.1812  135.6945  156.2036 H       1  UNL1        0.1552
     11 C         145.2654  132.2809  158.0458 C.3     1  UNL1        0.0310
     12 C         144.3343  132.8886  157.0389 C.ar    1  UNL1       -0.0217
     13 C         143.9750  132.1298  155.7959 C.ar    1  UNL1       -0.0043
     14 C         143.0439  132.7375  154.7890 C.ar    1  UNL1       -0.0002
     15 C         142.4721  134.1039  155.0252 C.ar    1  UNL1        0.0045
     16 C         142.8314  134.8627  156.2682 C.ar    1  UNL1        0.0534
     17 C         143.7625  134.2550  157.2751 C.ar    1  UNL1        0.0003
     18 N         139.4790  140.2804  159.6757 N.am    1  UNL1       -0.2803
     19 C         138.1710  140.2808  160.4099 C.2     1  UNL1        0.2495
     20 O         136.9407  139.7313  159.7507 O.2     1  UNL1       -0.2698
     21 H         140.2864  140.6411  160.1084 H       1  UNL1        0.1552
     22 C         138.0932  140.8307  161.8033 C.ar    1  UNL1        0.0545
     23 C         137.9223  142.3052  162.0193 C.ar    1  UNL1        0.0046
     24 C         137.8445  142.8551  163.4127 C.ar    1  UNL1        0.0010
     25 C         137.9376  141.9303  164.5902 C.ar    1  UNL1        0.0114
     26 C         138.1085  140.4559  164.3741 C.ar    1  UNL1        0.0578
     27 CL        138.2015  139.5312  165.5516 Cl      1  UNL1       -0.0822
     28 C         138.1863  139.9060  162.9807 C.ar    1  UNL1        0.0159
@<TRIPOS>BOND
     1    11    12    1
     2    12    13   ar
     3    13    14   ar
     4    14    15   ar
     5    15    16   ar
     6    16     7    1
     7     7     8    2
     8     7     9   am
     9     9     1    1
    10     1     2   ar
    11     2     3   ar
    12     3     4   ar
    13     4     5   ar
    14     5    18    1
    15    18    19   am
    16    19    20    2
    17    19    22    1
    18    22    23   ar
    19    23    24   ar
    20    24    25   ar
    21    25    26   ar
    22    26    27    1
    23    26    28   ar
    24     5     6   ar
    25    16    17   ar
    26    17    12   ar
    27     6     1   ar
    28    28    22   ar
    29     9    10    1
    30    18    21    1
@<TRIPOS>MOLECULE
*****
 28 30 0 0 0
SMALL
GASTEIGER

@<TRIPOS>ATOM
      1 C         139.7644  143.2448  164.9240 C.ar    1  UNL1        0.0518
      2 C         138.3289  143.6322  165.1214 C.ar    1  UNL1        0.0148
      3 C         137.4848  144.0100  163.9405 C.ar    1  UNL1        0.0025
      4 C         138.0763  144.0004  162.5621 C.ar    1  UNL1        0.0148
      5 C         139.5118  143.6131  162.3646 C.ar    1  UNL1        0.0518
      6 C         140.3559  143.2353  163.5456 C.ar    1  UNL1        0.0293
      7 C         140.4335  141.5260  166.7537 C.2     1  UNL1        0.2495
      8 O         139.4142  140.5627  166.2216 O.2     1  UNL1       -0.2698
      9 N         140.6086  142.8670  166.1050 N.am    1  UNL1       -0.2803
     10 H         141.2776  143.4992  166.4543 H       1  UNL1        0.1552
     11 C         144.3890  142.5411  169.9667 C.3     1  UNL1        0.0310
     12 C         143.2554  141.6557  169.5412 C.ar    1  UNL1       -0.0217
     13 C         142.9660  140.3926  170.2966 C.ar    1  UNL1       -0.0043
     14 C         141.8324  139.5072  169.8710 C.ar    1  UNL1       -0.0002
     15 C         140.9882  139.8850  168.6901 C.ar    1  UNL1        0.0045
     16 C         141.2777  141.1481  167.9347 C.ar    1  UNL1        0.0534
     17 C         142.4113  142.0335  168.3603 C.ar    1  UNL1        0.0003
     18 N         140.1033  143.6035  160.9862 N.am    1  UNL1       -0.2803
     19 C         140.4378  144.8972  160.3046 C.2     1  UNL1        0.2495
     20 O         140.1807  146.2004  161.0014 O.2     1  UNL1       -0.2698
     21 H         140.2720  142.7482  160.5288 H       1  UNL1        0.1552
     22 C         141.0292  144.8876  158.9261 C.ar    1  UNL1        0.0545
     23 C         140.5653  145.8827  157.9040 C.ar    1  UNL1        0.0046
     24 C         141.1568  145.8732  156.5256 C.ar    1  UNL1        0.0010
     25 C         142.2122  144.8685  156.1693 C.ar    1  UNL1        0.0114
     26 C         142.6760  143.8735  157.1914 C.ar    1  UNL1        0.0578
     27 CL        143.7314  142.8689  156.8350 Cl      1  UNL1       -0.0822
     28 C         142.0846  143.8830  158.5698 C.ar    1  UNL1        0.0159
@<TRIPOS>BOND
     1    11    12    1
     2    12    13   ar
     3    13    14   ar
     4    14    15   ar
     5    15    16   ar
     6    16     7    1
     7     7     8    2
     8     7     9   am
     9     9     1    1
    10     1     2   ar
    11     2     3   ar
    12     3     4   ar
    13     4     5   ar
    14     5    18    1
    15    18    19   am
    16    19    20    2
    17    19    22    1
    18    22    23   ar
    19    23    24   ar
    20    24    25   ar
    21    25    26   ar
    22    26    27    1
    23    26    28   ar
    24     5     6   ar
    25    16    17   ar
    26    17    12   ar
    27     6     1   ar
    28    28    22   ar
    29     9    10    1
    30    18    21    1
