@<TRIPOS>MOLECULE
*****
 32 34 0 0 0
SMALL
GASTEIGER

@<TRIPOS>ATOM
      1 C         141.1479  138.4939  164.9031 C.3     1  UNL1        0.1688
      2 C         141.4571  137.8646  163.5770 C.3     1  UNL1        0.0609
      3 C         140.3782  137.7220  162.5448 C.3     1  UNL1        0.0758
      4 N         138.9901  138.2087  162.8385 N.3     1  UNL1       -0.2724
      5 C         138.6809  138.8379  164.1645 C.3     1  UNL1        0.0758
      6 C         139.7598  138.9806  165.1969 C.3     1  UNL1        0.0609
      7 O         142.2268  138.6365  165.9354 O.3     1  UNL1       -0.4776
      8 C         143.7285  142.3083  165.8249 C.ar    1  UNL1       -0.0191
      9 C         143.2866  140.9439  165.3854 C.ar    1  UNL1        0.0342
     10 C         142.6688  140.0008  166.3748 C.ar    1  UNL1        0.1555
     11 C         142.4930  140.4221  167.8037 C.ar    1  UNL1        0.1151
     12 N         141.8752  139.4790  168.7931 N.ar    1  UNL1       -0.2408
     13 C         141.6994  139.9003  170.2219 C.ar    1  UNL1        0.0989
     14 C         142.1414  141.2647  170.6613 C.ar    1  UNL1        0.0207
     15 C         142.7591  142.2078  169.6719 C.ar    1  UNL1        0.0032
     16 C         142.9349  141.7865  168.2431 C.ar    1  UNL1        0.0204
     17 C         143.5527  142.7296  167.2537 C.ar    1  UNL1       -0.0026
     18 C         144.3463  143.2514  164.8354 C.3     1  UNL1        0.0265
     19 C         143.6266  143.5783  163.5606 C.3     1  UNL1        0.0047
     20 C         141.5410  145.1042  163.8281 C.3     1  UNL1        0.0000
     21 C         142.9643  144.9138  163.3944 C.3     1  UNL1        0.0003
     22 C         137.9111  138.0661  161.8063 C.3     1  UNL1        0.0721
     23 C         137.4324  139.2701  161.0505 C.3     1  UNL1        0.0188
     24 C         138.3945  140.0641  160.2175 C.3     1  UNL1        0.0206
     25 C         138.5199  141.5446  160.4232 C.3     1  UNL1        0.0955
     26 N         139.1132  142.0778  161.6936 N.3     1  UNL1       -0.1580
     27 C         140.4269  141.5487  162.1877 C.3     1  UNL1        0.1145
     28 S         138.3926  143.1400  162.4699 S.O2    1  UNL1        0.0438
     29 O         137.8495  142.0937  163.3974 O.2     1  UNL1       -0.1573
     30 O         138.9358  144.1862  161.5423 O.2     1  UNL1       -0.1573
     31 C         137.6721  144.2022  163.2461 C.3     1  UNL1        0.1692
     32 C         137.9513  144.3816  164.7090 C.3     1  UNL1        0.0289
@<TRIPOS>BOND
     1    20    21    1
     2    21    19    1
     3    19    18    1
     4    18     8    1
     5     8     9   ar
     6     9    10   ar
     7    10     7    1
     8     7     1    1
     9     1     2    1
    10     2     3    1
    11     3     4    1
    12     4    22    1
    13    22    23    1
    14    23    24    1
    15    24    25    1
    16    25    26    1
    17    26    27    1
    18    26    28    1
    19    28    29    2
    20    28    30    2
    21    28    31    1
    22    31    32    1
    23     4     5    1
    24     5     6    1
    25    10    11   ar
    26    11    12   ar
    27    12    13   ar
    28    13    14   ar
    29    14    15   ar
    30    15    16   ar
    31    16    17   ar
    32    17     8   ar
    33     6     1    1
    34    16    11   ar
@<TRIPOS>MOLECULE
*****
 32 34 0 0 0
SMALL
GASTEIGER

@<TRIPOS>ATOM
      1 C         139.1473  142.2924  165.1806 C.3     1  UNL1        0.1688
      2 C         138.5370  142.0890  163.8255 C.3     1  UNL1        0.0609
      3 C         138.5979  143.1851  162.8033 C.3     1  UNL1        0.0758
      4 N         139.2691  144.4846  163.1362 N.3     1  UNL1       -0.2724
      5 C         139.8794  144.6880  164.4912 C.3     1  UNL1        0.0758
      6 C         139.8185  143.5919  165.5135 C.3     1  UNL1        0.0609
      7 O         139.0864  141.1963  166.2027 O.3     1  UNL1       -0.4776
      8 C         142.4825  139.1430  166.2006 C.ar    1  UNL1       -0.0191
      9 C         141.2182  139.7919  165.7204 C.ar    1  UNL1        0.0342
     10 C         140.3506  140.5474  166.6829 C.ar    1  UNL1        0.1555
     11 C         140.7473  140.6541  168.1256 C.ar    1  UNL1        0.1151
     12 N         139.8797  141.4097  169.0881 N.ar    1  UNL1       -0.2408
     13 C         140.2764  141.5163  170.5307 C.ar    1  UNL1        0.0989
     14 C         141.5407  140.8675  171.0108 C.ar    1  UNL1        0.0207
     15 C         142.4083  140.1119  170.0484 C.ar    1  UNL1        0.0032
     16 C         142.0116  140.0053  168.6058 C.ar    1  UNL1        0.0204
     17 C         142.8792  139.2497  167.6432 C.ar    1  UNL1       -0.0026
     18 C         143.3501  138.3874  165.2380 C.3     1  UNL1        0.0265
     19 C         143.2990  138.7060  163.7731 C.3     1  UNL1        0.0047
     20 C         145.3310  140.3012  164.0490 C.3     1  UNL1        0.0000
     21 C         144.2905  139.6614  163.1783 C.3     1  UNL1        0.0003
     22 C         139.3300  145.5807  162.1141 C.3     1  UNL1        0.0721
     23 C         139.9867  145.3342  160.7881 C.3     1  UNL1        0.0188
     24 C         141.4464  144.9945  160.7258 C.3     1  UNL1        0.0206
     25 C         141.8896  143.5662  160.8420 C.3     1  UNL1        0.0955
     26 N         143.1915  143.2370  161.5106 N.3     1  UNL1       -0.1580
     27 C         144.2844  142.5645  160.7339 C.3     1  UNL1        0.1145
     28 S         143.4003  143.5802  162.9558 S.O2    1  UNL1        0.0438
     29 O         144.3760  144.6489  162.5610 O.2     1  UNL1       -0.1573
     30 O         142.4246  142.5114  163.3505 O.2     1  UNL1       -0.1573
     31 C         143.6091  143.9234  164.4010 C.3     1  UNL1        0.1692
     32 C         143.3895  142.8823  165.4584 C.3     1  UNL1        0.0289
@<TRIPOS>BOND
     1    20    21    1
     2    21    19    1
     3    19    18    1
     4    18     8    1
     5     8     9   ar
     6     9    10   ar
     7    10     7    1
     8     7     1    1
     9     1     2    1
    10     2     3    1
    11     3     4    1
    12     4    22    1
    13    22    23    1
    14    23    24    1
    15    24    25    1
    16    25    26    1
    17    26    27    1
    18    26    28    1
    19    28    29    2
    20    28    30    2
    21    28    31    1
    22    31    32    1
    23     4     5    1
    24     5     6    1
    25    10    11   ar
    26    11    12   ar
    27    12    13   ar
    28    13    14   ar
    29    14    15   ar
    30    15    16   ar
    31    16    17   ar
    32    17     8   ar
    33     6     1    1
    34    16    11   ar
@<TRIPOS>MOLECULE
*****
 32 34 0 0 0
SMALL
GASTEIGER

@<TRIPOS>ATOM
      1 C         143.1662  141.5903  164.8905 C.3     1  UNL1        0.1688
      2 C         143.5937  140.7079  163.7553 C.3     1  UNL1        0.0609
      3 C         143.6689  141.2606  162.3629 C.3     1  UNL1        0.0758
      4 N         143.3167  142.6958  162.1057 N.3     1  UNL1       -0.2724
      5 C         142.8892  143.5782  163.2408 C.3     1  UNL1        0.0758
      6 C         142.8139  143.0255  164.6333 C.3     1  UNL1        0.0609
      7 O         143.0909  141.0375  166.2829 O.3     1  UNL1       -0.4776
      8 C         139.4400  139.5288  166.6631 C.ar    1  UNL1       -0.0191
      9 C         140.7698  139.8899  166.0703 C.ar    1  UNL1        0.0342
     10 C         141.7612  140.6764  166.8756 C.ar    1  UNL1        0.1555
     11 C         141.4229  141.1018  168.2737 C.ar    1  UNL1        0.1151
     12 N         142.4142  141.8883  169.0790 N.ar    1  UNL1       -0.2408
     13 C         142.0759  142.3137  170.4770 C.ar    1  UNL1        0.0989
     14 C         140.7461  141.9525  171.0698 C.ar    1  UNL1        0.0207
     15 C         139.7548  141.1660  170.2645 C.ar    1  UNL1        0.0032
     16 C         140.0931  140.7407  168.8665 C.ar    1  UNL1        0.0204
     17 C         139.1017  139.9541  168.0611 C.ar    1  UNL1       -0.0026
     18 C         138.4486  138.7422  165.8577 C.3     1  UNL1        0.0265
     19 C         138.9099  137.5828  165.0253 C.3     1  UNL1        0.0047
     20 C         138.4057  138.9203  162.8558 C.3     1  UNL1        0.0000
     21 C         138.9856  137.7141  163.5330 C.3     1  UNL1        0.0003
     22 C         143.3919  143.2486  160.7133 C.3     1  UNL1        0.0721
     23 C         142.1356  143.4599  159.9213 C.3     1  UNL1        0.0188
     24 C         140.8469  142.8454  160.3811 C.3     1  UNL1        0.0206
     25 C         139.6026  143.6797  160.4552 C.3     1  UNL1        0.0955
     26 N         139.3941  144.6145  161.6097 N.3     1  UNL1       -0.1580
     27 C         139.9693  145.9991  161.5669 C.3     1  UNL1        0.1145
     28 S         138.6103  144.1646  162.8069 S.O2    1  UNL1        0.0438
     29 O         139.5135  144.9641  163.6986 O.2     1  UNL1       -0.1573
     30 O         137.7071  143.3652  161.9152 O.2     1  UNL1       -0.1573
     31 C         137.8266  143.7147  164.0041 C.3     1  UNL1        0.1692
     32 C         138.0582  142.3502  164.5827 C.3     1  UNL1        0.0289
@<TRIPOS>BOND
     1    20    21    1
     2    21    19    1
     3    19    18    1
     4    18     8    1
     5     8     9   ar
     6     9    10   ar
     7    10     7    1
     8     7     1    1
     9     1     2    1
    10     2     3    1
    11     3     4    1
    12     4    22    1
    13    22    23    1
    14    23    24    1
    15    24    25    1
    16    25    26    1
    17    26    27    1
    18    26    28    1
    19    28    29    2
    20    28    30    2
    21    28    31    1
    22    31    32    1
    23     4     5    1
    24     5     6    1
    25    10    11   ar
    26    11    12   ar
    27    12    13   ar
    28    13    14   ar
    29    14    15   ar
    30    15    16   ar
    31    16    17   ar
    32    17     8   ar
    33     6     1    1
    34    16    11   ar
@<TRIPOS>MOLECULE
*****
 32 34 0 0 0
SMALL
GASTEIGER

@<TRIPOS>ATOM
      1 C         141.4220  138.2498  164.7671 C.3     1  UNL1        0.1688
      2 C         141.7137  137.9774  163.3211 C.3     1  UNL1        0.0609
      3 C         140.5879  137.8765  162.3350 C.3     1  UNL1        0.0758
      4 N         139.1705  138.0481  162.7948 N.3     1  UNL1       -0.2724
      5 C         138.8787  138.3205  164.2407 C.3     1  UNL1        0.0758
      6 C         140.0045  138.4214  165.2269 C.3     1  UNL1        0.0609
      7 O         142.5477  138.3507  165.7532 O.3     1  UNL1       -0.4776
      8 C         142.7385  140.9968  168.7048 C.ar    1  UNL1       -0.0191
      9 C         142.5025  139.7136  167.9646 C.ar    1  UNL1        0.0342
     10 C         142.7837  139.6338  166.4934 C.ar    1  UNL1        0.1555
     11 C         143.3010  140.8372  165.7623 C.ar    1  UNL1        0.1151
     12 N         143.5823  140.7573  164.2911 N.ar    1  UNL1       -0.2408
     13 C         144.0995  141.9607  163.5601 C.ar    1  UNL1        0.0989
     14 C         144.3355  143.2438  164.3003 C.ar    1  UNL1        0.0207
     15 C         144.0543  143.3236  165.7715 C.ar    1  UNL1        0.0032
     16 C         143.5370  142.1203  166.5025 C.ar    1  UNL1        0.0204
     17 C         143.2557  142.2001  167.9738 C.ar    1  UNL1       -0.0026
     18 C         142.4572  141.0766  170.1761 C.3     1  UNL1        0.0265
     19 C         141.0898  140.7469  170.6972 C.3     1  UNL1        0.0047
     20 C         138.6248  140.3368  169.9861 C.3     1  UNL1        0.0000
     21 C         139.8726  141.1673  169.9281 C.3     1  UNL1        0.0003
     22 C         138.0447  137.9473  161.8087 C.3     1  UNL1        0.0721
     23 C         137.5369  139.1801  161.1214 C.3     1  UNL1        0.0188
     24 C         137.5522  140.4981  161.8374 C.3     1  UNL1        0.0206
     25 C         138.6729  141.4668  161.6014 C.3     1  UNL1        0.0955
     26 N         138.9204  142.5794  162.5766 N.3     1  UNL1       -0.1580
     27 C         138.8528  144.0064  162.1192 C.3     1  UNL1        0.1145
     28 S         139.2354  142.2651  164.0090 S.O2    1  UNL1        0.0438
     29 O         137.9915  142.9839  164.4403 O.2     1  UNL1       -0.1573
     30 O         140.4793  141.5462  163.5777 O.2     1  UNL1       -0.1573
     31 C         139.5504  141.9507  165.4415 C.3     1  UNL1        0.1692
     32 C         140.0422  143.0331  166.3562 C.3     1  UNL1        0.0289
@<TRIPOS>BOND
     1    20    21    1
     2    21    19    1
     3    19    18    1
     4    18     8    1
     5     8     9   ar
     6     9    10   ar
     7    10     7    1
     8     7     1    1
     9     1     2    1
    10     2     3    1
    11     3     4    1
    12     4    22    1
    13    22    23    1
    14    23    24    1
    15    24    25    1
    16    25    26    1
    17    26    27    1
    18    26    28    1
    19    28    29    2
    20    28    30    2
    21    28    31    1
    22    31    32    1
    23     4     5    1
    24     5     6    1
    25    10    11   ar
    26    11    12   ar
    27    12    13   ar
    28    13    14   ar
    29    14    15   ar
    30    15    16   ar
    31    16    17   ar
    32    17     8   ar
    33     6     1    1
    34    16    11   ar
@<TRIPOS>MOLECULE
*****
 32 34 0 0 0
SMALL
GASTEIGER

@<TRIPOS>ATOM
      1 C         139.0751  139.1835  164.8253 C.3     1  UNL1        0.1688
      2 C         138.2239  140.3795  164.5169 C.3     1  UNL1        0.0609
      3 C         137.6585  140.5626  163.1396 C.3     1  UNL1        0.0758
      4 N         137.9442  139.5497  162.0708 N.3     1  UNL1       -0.2724
      5 C         138.7953  138.3537  162.3792 C.3     1  UNL1        0.0758
      6 C         139.3607  138.1705  163.7565 C.3     1  UNL1        0.0609
      7 O         139.6405  139.0004  166.2025 O.3     1  UNL1       -0.4776
      8 C         142.8741  141.3009  166.2277 C.ar    1  UNL1       -0.0191
      9 C         141.7821  140.3962  165.7389 C.ar    1  UNL1        0.0342
     10 C         140.7325  139.9051  166.6913 C.ar    1  UNL1        0.1555
     11 C         140.7749  140.3187  168.1326 C.ar    1  UNL1        0.1151
     12 N         139.7253  139.8276  169.0850 N.ar    1  UNL1       -0.2408
     13 C         139.7677  140.2412  170.5262 C.ar    1  UNL1        0.0989
     14 C         140.8598  141.1459  171.0150 C.ar    1  UNL1        0.0207
     15 C         141.9094  141.6370  170.0626 C.ar    1  UNL1        0.0032
     16 C         141.8669  141.2234  168.6214 C.ar    1  UNL1        0.0204
     17 C         142.9166  141.7145  167.6689 C.ar    1  UNL1       -0.0026
     18 C         143.9238  141.7921  165.2753 C.3     1  UNL1        0.0265
     19 C         144.2019  143.2614  165.1582 C.3     1  UNL1        0.0047
     20 C         143.4132  145.3611  163.8470 C.3     1  UNL1        0.0000
     21 C         143.9681  143.9675  163.8557 C.3     1  UNL1        0.0003
     22 C         137.3788  139.7328  160.6936 C.3     1  UNL1        0.0721
     23 C         138.2732  140.1541  159.5655 C.3     1  UNL1        0.0188
     24 C         138.7091  141.5846  159.4481 C.3     1  UNL1        0.0206
     25 C         138.2528  142.5931  160.4604 C.3     1  UNL1        0.0955
     26 N         139.2168  143.6129  160.9902 N.3     1  UNL1       -0.1580
     27 C         140.1743  144.2950  160.0586 C.3     1  UNL1        0.1145
     28 S         139.2233  143.9506  162.4517 S.O2    1  UNL1        0.0438
     29 O         138.1497  144.9723  162.2204 O.2     1  UNL1       -0.1573
     30 O         140.2969  142.9289  162.6830 O.2     1  UNL1       -0.1573
     31 C         139.2298  144.2883  163.9132 C.3     1  UNL1        0.1692
     32 C         140.2284  143.6427  164.8277 C.3     1  UNL1        0.0289
@<TRIPOS>BOND
     1    20    21    1
     2    21    19    1
     3    19    18    1
     4    18     8    1
     5     8     9   ar
     6     9    10   ar
     7    10     7    1
     8     7     1    1
     9     1     2    1
    10     2     3    1
    11     3     4    1
    12     4    22    1
    13    22    23    1
    14    23    24    1
    15    24    25    1
    16    25    26    1
    17    26    27    1
    18    26    28    1
    19    28    29    2
    20    28    30    2
    21    28    31    1
    22    31    32    1
    23     4     5    1
    24     5     6    1
    25    10    11   ar
    26    11    12   ar
    27    12    13   ar
    28    13    14   ar
    29    14    15   ar
    30    15    16   ar
    31    16    17   ar
    32    17     8   ar
    33     6     1    1
    34    16    11   ar
@<TRIPOS>MOLECULE
*****
 32 34 0 0 0
SMALL
GASTEIGER

@<TRIPOS>ATOM
      1 C         142.7410  139.0634  165.2443 C.3     1  UNL1        0.1688
      2 C         141.7397  138.2230  164.5084 C.3     1  UNL1        0.0609
      3 C         142.0003  137.8177  163.0880 C.3     1  UNL1        0.0758
      4 N         143.2620  138.2527  162.4033 N.3     1  UNL1       -0.2724
      5 C         144.2632  139.0930  163.1391 C.3     1  UNL1        0.0758
      6 C         144.0027  139.4984  164.5596 C.3     1  UNL1        0.0609
      7 O         142.4804  139.4687  166.6648 O.3     1  UNL1       -0.4776
      8 C         140.6136  142.9298  166.1304 C.ar    1  UNL1       -0.0191
      9 C         141.3519  141.6575  165.8369 C.ar    1  UNL1        0.0342
     10 C         141.7422  140.7410  166.9583 C.ar    1  UNL1        0.1555
     11 C         141.3942  141.0968  168.3734 C.ar    1  UNL1        0.1151
     12 N         141.7845  140.1803  169.4949 N.ar    1  UNL1       -0.2408
     13 C         141.4365  140.5362  170.9098 C.ar    1  UNL1        0.0989
     14 C         140.6982  141.8085  171.2034 C.ar    1  UNL1        0.0207
     15 C         140.3080  142.7250  170.0819 C.ar    1  UNL1        0.0032
     16 C         140.6559  142.3691  168.6670 C.ar    1  UNL1        0.0204
     17 C         140.2657  143.2857  167.5454 C.ar    1  UNL1       -0.0026
     18 C         140.2234  143.8463  165.0089 C.3     1  UNL1        0.0265
     19 C         138.9514  144.6368  165.0944 C.3     1  UNL1        0.0047
     20 C         137.6824  142.7316  163.8655 C.3     1  UNL1        0.0000
     21 C         137.6739  144.0623  164.5576 C.3     1  UNL1        0.0003
     22 C         143.5226  137.8474  160.9828 C.3     1  UNL1        0.0721
     23 C         143.5812  138.8885  159.9045 C.3     1  UNL1        0.0188
     24 C         142.6366  140.0533  159.9344 C.3     1  UNL1        0.0206
     25 C         143.1104  141.3908  160.4208 C.3     1  UNL1        0.0955
     26 N         142.4749  142.0189  161.6257 N.3     1  UNL1       -0.1580
     27 C         141.2633  141.3906  162.2478 C.3     1  UNL1        0.1145
     28 S         143.0512  143.2752  162.2085 S.O2    1  UNL1        0.0438
     29 O         144.2712  142.5159  162.6388 O.2     1  UNL1       -0.1573
     30 O         141.8313  144.0344  161.7781 O.2     1  UNL1       -0.1573
     31 C         143.6275  144.5315  162.7912 C.3     1  UNL1        0.1692
     32 C         143.8262  144.6483  164.2735 C.3     1  UNL1        0.0289
@<TRIPOS>BOND
     1    20    21    1
     2    21    19    1
     3    19    18    1
     4    18     8    1
     5     8     9   ar
     6     9    10   ar
     7    10     7    1
     8     7     1    1
     9     1     2    1
    10     2     3    1
    11     3     4    1
    12     4    22    1
    13    22    23    1
    14    23    24    1
    15    24    25    1
    16    25    26    1
    17    26    27    1
    18    26    28    1
    19    28    29    2
    20    28    30    2
    21    28    31    1
    22    31    32    1
    23     4     5    1
    24     5     6    1
    25    10    11   ar
    26    11    12   ar
    27    12    13   ar
    28    13    14   ar
    29    14    15   ar
    30    15    16   ar
    31    16    17   ar
    32    17     8   ar
    33     6     1    1
    34    16    11   ar
@<TRIPOS>MOLECULE
*****
 32 34 0 0 0
SMALL
GASTEIGER

@<TRIPOS>ATOM
      1 C         139.4173  138.3010  161.3988 C.3     1  UNL1        0.1688
      2 C         140.1936  138.3925  160.1185 C.3     1  UNL1        0.0609
      3 C         139.6440  139.1741  158.9623 C.3     1  UNL1        0.0758
      4 N         138.3181  139.8644  159.0863 N.3     1  UNL1       -0.2724
      5 C         137.5417  139.7730  160.3664 C.3     1  UNL1        0.0758
      6 C         138.0913  138.9913  161.5227 C.3     1  UNL1        0.0609
      7 O         139.9669  137.5194  162.5550 O.3     1  UNL1       -0.4776
      8 C         143.1817  139.0645  164.2949 C.ar    1  UNL1       -0.0191
      9 C         142.3042  138.3896  163.2828 C.ar    1  UNL1        0.0342
     10 C         140.8444  138.1943  163.5671 C.ar    1  UNL1        0.1555
     11 C         140.2621  138.6740  164.8637 C.ar    1  UNL1        0.1151
     12 N         138.8023  138.4787  165.1480 N.ar    1  UNL1       -0.2408
     13 C         138.2201  138.9583  166.4445 C.ar    1  UNL1        0.0989
     14 C         139.0977  139.6332  167.4566 C.ar    1  UNL1        0.0207
     15 C         140.5574  139.8285  167.1723 C.ar    1  UNL1        0.0032
     16 C         141.1397  139.3489  165.8758 C.ar    1  UNL1        0.0204
     17 C         142.5995  139.5441  165.5914 C.ar    1  UNL1       -0.0026
     18 C         144.6416  139.2597  164.0105 C.3     1  UNL1        0.0265
     19 C         145.2484  140.6280  164.1090 C.3     1  UNL1        0.0047
     20 C         144.5895  142.8893  163.0125 C.3     1  UNL1        0.0000
     21 C         145.2386  141.5402  162.9184 C.3     1  UNL1        0.0003
     22 C         137.7684  140.6460  157.9300 C.3     1  UNL1        0.0721
     23 C         137.8990  142.1402  157.9051 C.3     1  UNL1        0.0188
     24 C         139.2071  142.7847  158.2561 C.3     1  UNL1        0.0206
     25 C         139.4398  143.3015  159.6449 C.3     1  UNL1        0.0955
     26 N         140.0556  144.6541  159.8485 N.3     1  UNL1       -0.1580
     27 C         140.2584  145.5697  158.6778 C.3     1  UNL1        0.1145
     28 S         140.4685  145.0910  161.2228 S.O2    1  UNL1        0.0438
     29 O         139.0321  145.3417  161.5746 O.2     1  UNL1       -0.1573
     30 O         141.9049  144.8402  160.8709 O.2     1  UNL1       -0.1573
     31 C         140.8814  145.5279  162.5970 C.3     1  UNL1        0.1692
     32 C         141.1410  144.5048  163.6629 C.3     1  UNL1        0.0289
@<TRIPOS>BOND
     1    20    21    1
     2    21    19    1
     3    19    18    1
     4    18     8    1
     5     8     9   ar
     6     9    10   ar
     7    10     7    1
     8     7     1    1
     9     1     2    1
    10     2     3    1
    11     3     4    1
    12     4    22    1
    13    22    23    1
    14    23    24    1
    15    24    25    1
    16    25    26    1
    17    26    27    1
    18    26    28    1
    19    28    29    2
    20    28    30    2
    21    28    31    1
    22    31    32    1
    23     4     5    1
    24     5     6    1
    25    10    11   ar
    26    11    12   ar
    27    12    13   ar
    28    13    14   ar
    29    14    15   ar
    30    15    16   ar
    31    16    17   ar
    32    17     8   ar
    33     6     1    1
    34    16    11   ar
@<TRIPOS>MOLECULE
*****
 32 34 0 0 0
SMALL
GASTEIGER

@<TRIPOS>ATOM
      1 C         139.2998  142.8689  164.5665 C.3     1  UNL1        0.1688
      2 C         140.4480  143.8335  164.6061 C.3     1  UNL1        0.0609
      3 C         140.6498  144.8057  163.4819 C.3     1  UNL1        0.0758
      4 N         139.7035  144.8136  162.3181 N.3     1  UNL1       -0.2724
      5 C         138.5554  143.8491  162.2785 C.3     1  UNL1        0.0758
      6 C         138.3535  142.8768  163.4027 C.3     1  UNL1        0.0609
      7 O         139.0980  141.8966  165.6907 O.3     1  UNL1       -0.4776
      8 C         142.1565  140.4292  167.7504 C.ar    1  UNL1       -0.0191
      9 C         141.0344  141.3304  167.3277 C.ar    1  UNL1        0.0342
     10 C         140.2201  140.9954  166.1134 C.ar    1  UNL1        0.1555
     11 C         140.5280  139.7591  165.3216 C.ar    1  UNL1        0.1151
     12 N         139.7137  139.4240  164.1073 N.ar    1  UNL1       -0.2408
     13 C         140.0215  138.1878  163.3156 C.ar    1  UNL1        0.0989
     14 C         141.1436  137.2865  163.7383 C.ar    1  UNL1        0.0207
     15 C         141.9579  137.6215  164.9526 C.ar    1  UNL1        0.0032
     16 C         141.6501  138.8578  165.7443 C.ar    1  UNL1        0.0204
     17 C         142.4643  139.1929  166.9587 C.ar    1  UNL1       -0.0026
     18 C         142.9708  140.7643  168.9648 C.3     1  UNL1        0.0265
     19 C         143.2922  142.1949  169.2809 C.3     1  UNL1        0.0047
     20 C         141.4270  142.2152  171.0893 C.3     1  UNL1        0.0000
     21 C         142.5348  142.9136  170.3578 C.3     1  UNL1        0.0003
     22 C         139.9053  145.7859  161.1939 C.3     1  UNL1        0.0721
     23 C         140.8841  145.4755  160.1004 C.3     1  UNL1        0.0188
     24 C         141.3179  144.0596  159.8618 C.3     1  UNL1        0.0206
     25 C         142.5762  143.5440  160.4949 C.3     1  UNL1        0.0955
     26 N         142.5011  142.5114  161.5804 N.3     1  UNL1       -0.1580
     27 C         141.3904  141.5034  161.5811 C.3     1  UNL1        0.1145
     28 S         143.5369  142.4869  162.6651 S.O2    1  UNL1        0.0438
     29 O         144.2675  143.6113  161.9928 O.2     1  UNL1       -0.1573
     30 O         142.8062  141.3626  163.3374 O.2     1  UNL1       -0.1573
     31 C         144.5726  142.4624  163.7498 C.3     1  UNL1        0.1692
     32 C         145.8289  141.6628  163.5694 C.3     1  UNL1        0.0289
@<TRIPOS>BOND
     1    20    21    1
     2    21    19    1
     3    19    18    1
     4    18     8    1
     5     8     9   ar
     6     9    10   ar
     7    10     7    1
     8     7     1    1
     9     1     2    1
    10     2     3    1
    11     3     4    1
    12     4    22    1
    13    22    23    1
    14    23    24    1
    15    24    25    1
    16    25    26    1
    17    26    27    1
    18    26    28    1
    19    28    29    2
    20    28    30    2
    21    28    31    1
    22    31    32    1
    23     4     5    1
    24     5     6    1
    25    10    11   ar
    26    11    12   ar
    27    12    13   ar
    28    13    14   ar
    29    14    15   ar
    30    15    16   ar
    31    16    17   ar
    32    17     8   ar
    33     6     1    1
    34    16    11   ar
@<TRIPOS>MOLECULE
*****
 32 34 0 0 0
SMALL
GASTEIGER

@<TRIPOS>ATOM
      1 C         143.9075  140.0637  164.6295 C.3     1  UNL1        0.1688
      2 C         144.1988  139.4300  163.3014 C.3     1  UNL1        0.0609
      3 C         144.4679  140.2905  162.1027 C.3     1  UNL1        0.0758
      4 N         144.4457  141.7848  162.2320 N.3     1  UNL1       -0.2724
      5 C         144.1545  142.4185  163.5599 C.3     1  UNL1        0.0758
      6 C         143.8854  141.5579  164.7587 C.3     1  UNL1        0.0609
      7 O         143.6384  139.2031  165.8282 O.3     1  UNL1       -0.4776
      8 C         141.5149  140.1953  169.0308 C.ar    1  UNL1       -0.0191
      9 C         142.6878  139.9000  168.1435 C.ar    1  UNL1        0.0342
     10 C         142.4656  139.4985  166.7155 C.ar    1  UNL1        0.1555
     11 C         141.0705  139.3923  166.1746 C.ar    1  UNL1        0.1151
     12 N         140.8483  138.9908  164.7465 N.ar    1  UNL1       -0.2408
     13 C         139.4532  138.8846  164.2057 C.ar    1  UNL1        0.0989
     14 C         138.2804  139.1800  165.0930 C.ar    1  UNL1        0.0207
     15 C         138.5026  139.5815  166.5210 C.ar    1  UNL1        0.0032
     16 C         139.8976  139.6876  167.0618 C.ar    1  UNL1        0.0204
     17 C         140.1199  140.0892  168.4900 C.ar    1  UNL1       -0.0026
     18 C         141.7372  140.5969  170.4589 C.3     1  UNL1        0.0265
     19 C         142.0874  142.0166  170.7929 C.3     1  UNL1        0.0047
     20 C         140.4233  143.7610  169.8245 C.3     1  UNL1        0.0000
     21 C         141.7769  143.1147  169.8194 C.3     1  UNL1        0.0003
     22 C         144.7148  142.6454  161.0332 C.3     1  UNL1        0.0721
     23 C         143.7022  142.7326  159.9300 C.3     1  UNL1        0.0188
     24 C         142.3784  143.3932  160.1776 C.3     1  UNL1        0.0206
     25 C         141.1186  142.5795  160.1563 C.3     1  UNL1        0.0955
     26 N         139.9434  142.9945  160.9911 N.3     1  UNL1       -0.1580
     27 C         138.5825  142.4343  160.7015 C.3     1  UNL1        0.1145
     28 S         140.1293  143.9698  162.1155 S.O2    1  UNL1        0.0438
     29 O         139.5585  145.0630  161.2616 O.2     1  UNL1       -0.1573
     30 O         140.7001  142.8766  162.9694 O.2     1  UNL1       -0.1573
     31 C         140.3152  144.9451  163.2399 C.3     1  UNL1        0.1692
     32 C         141.6949  145.2691  163.7313 C.3     1  UNL1        0.0289
@<TRIPOS>BOND
     1    20    21    1
     2    21    19    1
     3    19    18    1
     4    18     8    1
     5     8     9   ar
     6     9    10   ar
     7    10     7    1
     8     7     1    1
     9     1     2    1
    10     2     3    1
    11     3     4    1
    12     4    22    1
    13    22    23    1
    14    23    24    1
    15    24    25    1
    16    25    26    1
    17    26    27    1
    18    26    28    1
    19    28    29    2
    20    28    30    2
    21    28    31    1
    22    31    32    1
    23     4     5    1
    24     5     6    1
    25    10    11   ar
    26    11    12   ar
    27    12    13   ar
    28    13    14   ar
    29    14    15   ar
    30    15    16   ar
    31    16    17   ar
    32    17     8   ar
    33     6     1    1
    34    16    11   ar
