@<TRIPOS>MOLECULE
*****
 48 55 0 0 0
SMALL
GASTEIGER

@<TRIPOS>ATOM
      1 C         140.5455  144.7511  157.8261 C.ar    1  UNL1        0.1384
      2 C         141.3708  144.2978  156.6585 C.ar    1  UNL1        0.0369
      3 C         141.8028  142.8649  156.5566 C.ar    1  UNL1        0.0042
      4 C         141.4095  141.8854  157.6223 C.ar    1  UNL1        0.0117
      5 C         140.5842  142.3386  158.7899 C.ar    1  UNL1       -0.0176
      6 C         140.1522  143.7715  158.8919 C.ar    1  UNL1        0.0327
      7 C         140.0871  141.5323  159.9530 C.3     1  UNL1        0.0330
      8 C         139.4973  140.9173  161.1874 C.3     1  UNL1        0.0157
      9 C         140.2925  140.0736  160.2357 C.3     1  UNL1        0.0938
     10 C         141.0458  139.0609  159.4251 C.3     1  UNL1        0.1148
     11 N         141.7797  139.2568  158.1317 N.ar    1  UNL1       -0.3269
     12 C         141.9415  140.5138  157.3293 C.ar    1  UNL1        0.0555
     13 C         142.7615  140.1873  156.1165 C.ar    1  UNL1       -0.0053
     14 C         143.1064  138.7284  156.1693 C.ar    1  UNL1        0.0132
     15 C         143.8947  137.8492  155.2441 C.ar    1  UNL1        0.0013
     16 C         144.0761  136.3951  155.5645 C.ar    1  UNL1        0.0046
     17 C         143.4692  135.8201  156.8099 C.ar    1  UNL1        0.0563
     18 C         142.6810  136.6992  157.7350 C.ar    1  UNL1        0.0217
     19 C         142.4996  138.1534  157.4148 C.ar    1  UNL1        0.0597
     20 C         140.0117  138.9427  161.1803 C.2     1  UNL1        0.2268
     21 O         138.8100  138.0701  160.9694 O.2     1  UNL1       -0.2748
     22 N         140.9327  138.6844  162.3358 N.am    1  UNL1       -0.2800
     23 C         142.1665  139.4684  162.6722 C.3     1  UNL1        0.0913
     24 C         142.7779  138.8653  163.9021 C.3     1  UNL1        0.0230
     25 C         141.9219  137.7085  164.3256 C.3     1  UNL1        0.0230
     26 C         140.7816  137.5968  163.3576 C.3     1  UNL1        0.0913
     27 C         139.7630  137.7231  162.2505 C.3     1  UNL1        0.0922
     28 N         140.0438  138.8541  161.3059 N.3     1  UNL1       -0.2687
     29 C         139.1228  139.1124  160.1504 C.3     1  UNL1        0.0897
     30 C         141.2455  139.7267  161.5168 C.3     1  UNL1        0.0922
     31 C         143.1657  141.1503  155.0400 C.3     1  UNL1        0.0238
     32 C         144.4462  141.9214  155.1655 C.3     1  UNL1        0.0044
     33 C         144.8504  142.8845  154.0890 C.3     1  UNL1        0.0003
     34 C         143.9741  143.0766  152.8868 C.3     1  UNL1        0.0000
     35 C         142.6936  142.3055  152.7612 C.3     1  UNL1        0.0003
     36 C         142.2894  141.3424  153.8378 C.3     1  UNL1        0.0044
     37 C         143.6506  134.3660  157.1303 C.2     1  UNL1        0.2651
     38 O         143.8838  133.9336  158.5475 O.2     1  UNL1       -0.2685
     39 N         143.5989  133.3442  156.0333 N.am    1  UNL1       -0.1714
     40 H         143.4458  133.6280  155.1031 H       1  UNL1        0.1779
     41 S         143.7802  131.8901  156.3536 S.O2    1  UNL1        0.1154
     42 O         142.3082  131.7634  156.6126 O.2     1  UNL1       -0.1378
     43 O         145.2523  132.0167  156.0944 O.2     1  UNL1       -0.1378
     44 N         143.9617  130.4360  156.6738 N.3     1  UNL1       -0.1398
     45 C         144.5743  130.0265  157.9803 C.3     1  UNL1        0.1163
     46 C         143.5306  129.3914  155.6874 C.3     1  UNL1        0.1163
     47 C         139.5721  146.8916  156.7214 C.3     1  UNL1        0.2525
     48 O         140.1136  146.1838  157.9280 O.3     1  UNL1       -0.4714
@<TRIPOS>BOND
     1    47    48    1
     2    48     1    1
     3     1     2   ar
     4     2     3   ar
     5     3     4   ar
     6     4     5   ar
     7     5     6   ar
     8     5     7    1
     9     7     8    1
    10     8     9    1
    11     9    20    1
    12    20    21    2
    13    20    22   am
    14    22    23    1
    15    23    24    1
    16    24    25    1
    17    25    26    1
    18    26    27    1
    19    27    28    1
    20    28    29    1
    21    28    30    1
    22     9    10    1
    23    10    11    1
    24    11    12   ar
    25    12    13   ar
    26    13    31    1
    27    31    32    1
    28    32    33    1
    29    33    34    1
    30    34    35    1
    31    35    36    1
    32    13    14   ar
    33    14    15   ar
    34    15    16   ar
    35    16    17   ar
    36    17    37    1
    37    37    38    2
    38    37    39   am
    39    39    41    1
    40    41    42    2
    41    41    43    2
    42    41    44    1
    43    44    45    1
    44    44    46    1
    45    17    18   ar
    46    18    19   ar
    47     6     1   ar
    48     9     7    1
    49    26    22    1
    50    19    11   ar
    51    12     4    1
    52    36    31    1
    53    19    14   ar
    54    30    23    1
    55    39    40    1
@<TRIPOS>MOLECULE
*****
 48 55 0 0 0
SMALL
GASTEIGER

@<TRIPOS>ATOM
      1 C         139.2731  139.9424  162.1730 C.ar    1  UNL1        0.1384
      2 C         140.3525  140.9248  162.5194 C.ar    1  UNL1        0.0369
      3 C         141.4666  141.1876  161.5500 C.ar    1  UNL1        0.0042
      4 C         141.5014  140.4682  160.2344 C.ar    1  UNL1        0.0117
      5 C         140.4220  139.4859  159.8879 C.ar    1  UNL1       -0.0176
      6 C         139.3078  139.2230  160.8572 C.ar    1  UNL1        0.0327
      7 C         140.2676  138.6673  158.6404 C.3     1  UNL1        0.0330
      8 C         139.9275  137.7679  157.4891 C.3     1  UNL1        0.0157
      9 C         141.1545  138.6289  157.4313 C.3     1  UNL1        0.0938
     10 C         142.4148  139.3996  157.1710 C.3     1  UNL1        0.1148
     11 N         143.0995  140.3990  158.0555 N.ar    1  UNL1       -0.3269
     12 C         142.6930  140.8745  159.4188 C.ar    1  UNL1        0.0555
     13 C         143.7085  141.8765  159.8822 C.ar    1  UNL1       -0.0053
     14 C         144.7426  142.0202  158.8052 C.ar    1  UNL1        0.0132
     15 C         145.9786  142.8646  158.7066 C.ar    1  UNL1        0.0013
     16 C         146.8379  142.7958  157.4791 C.ar    1  UNL1        0.0046
     17 C         146.4615  141.8826  156.3502 C.ar    1  UNL1        0.0563
     18 C         145.2257  141.0382  156.4488 C.ar    1  UNL1        0.0217
     19 C         144.3662  141.1070  157.6763 C.ar    1  UNL1        0.0597
     20 C         141.3776  138.0246  156.0766 C.2     1  UNL1        0.2268
     21 O         140.7597  138.6543  154.8635 O.2     1  UNL1       -0.2748
     22 N         142.2186  136.7907  155.9352 N.am    1  UNL1       -0.2800
     23 C         142.8973  136.0535  157.0514 C.3     1  UNL1        0.0913
     24 C         143.6268  134.8844  156.4586 C.3     1  UNL1        0.0230
     25 C         143.3988  134.8992  154.9760 C.3     1  UNL1        0.0230
     26 C         142.5286  136.0772  154.6526 C.3     1  UNL1        0.0913
     27 C         141.6616  137.3129  154.6250 C.3     1  UNL1        0.0922
     28 N         141.4384  137.9171  155.9797 N.3     1  UNL1       -0.2687
     29 C         140.5974  139.1511  156.1213 C.3     1  UNL1        0.0897
     30 C         142.0563  137.2874  157.1928 C.3     1  UNL1        0.0922
     31 C         143.6927  142.6066  161.1923 C.3     1  UNL1        0.0238
     32 C         144.5237  142.1095  162.3380 C.3     1  UNL1        0.0044
     33 C         144.5080  142.8396  163.6481 C.3     1  UNL1        0.0003
     34 C         143.6613  144.0668  163.8128 C.3     1  UNL1        0.0000
     35 C         142.8304  144.5640  162.6672 C.3     1  UNL1        0.0003
     36 C         142.8461  143.8338  161.3569 C.3     1  UNL1        0.0044
     37 C         147.3209  141.8138  155.1228 C.2     1  UNL1        0.2651
     38 O         146.7528  141.2878  153.8380 O.2     1  UNL1       -0.2685
     39 N         148.7484  142.2709  155.1800 N.am    1  UNL1       -0.1714
     40 H         149.1212  142.6161  156.0232 H       1  UNL1        0.1779
     41 S         149.6079  142.2022  153.9526 S.O2    1  UNL1        0.1154
     42 O         150.2918  140.9844  154.4996 O.2     1  UNL1       -0.1378
     43 O         148.9239  143.4200  153.4056 O.2     1  UNL1       -0.1378
     44 N         150.4673  142.1335  152.7252 N.3     1  UNL1       -0.1398
     45 C         151.0064  143.3935  152.1155 C.3     1  UNL1        0.1163
     46 C         150.7876  140.8047  152.1073 C.3     1  UNL1        0.1163
     47 C         138.3326  140.0162  164.5937 C.3     1  UNL1        0.2525
     48 O         138.1590  139.6796  163.1423 O.3     1  UNL1       -0.4714
@<TRIPOS>BOND
     1    47    48    1
     2    48     1    1
     3     1     2   ar
     4     2     3   ar
     5     3     4   ar
     6     4     5   ar
     7     5     6   ar
     8     5     7    1
     9     7     8    1
    10     8     9    1
    11     9    20    1
    12    20    21    2
    13    20    22   am
    14    22    23    1
    15    23    24    1
    16    24    25    1
    17    25    26    1
    18    26    27    1
    19    27    28    1
    20    28    29    1
    21    28    30    1
    22     9    10    1
    23    10    11    1
    24    11    12   ar
    25    12    13   ar
    26    13    31    1
    27    31    32    1
    28    32    33    1
    29    33    34    1
    30    34    35    1
    31    35    36    1
    32    13    14   ar
    33    14    15   ar
    34    15    16   ar
    35    16    17   ar
    36    17    37    1
    37    37    38    2
    38    37    39   am
    39    39    41    1
    40    41    42    2
    41    41    43    2
    42    41    44    1
    43    44    45    1
    44    44    46    1
    45    17    18   ar
    46    18    19   ar
    47     6     1   ar
    48     9     7    1
    49    26    22    1
    50    19    11   ar
    51    12     4    1
    52    36    31    1
    53    19    14   ar
    54    30    23    1
    55    39    40    1
@<TRIPOS>MOLECULE
*****
 48 55 0 0 0
SMALL
GASTEIGER

@<TRIPOS>ATOM
      1 C         140.4800  144.5220  157.5394 C.ar    1  UNL1        0.1384
      2 C         140.4136  143.8045  156.2238 C.ar    1  UNL1        0.0369
      3 C         140.8238  142.3645  156.1334 C.ar    1  UNL1        0.0042
      4 C         141.3003  141.6420  157.3584 C.ar    1  UNL1        0.0117
      5 C         141.3668  142.3595  158.6740 C.ar    1  UNL1       -0.0176
      6 C         140.9567  143.7995  158.7645 C.ar    1  UNL1        0.0327
      7 C         141.8085  141.8307  160.0064 C.3     1  UNL1        0.0330
      8 C         142.2054  141.5075  161.4163 C.3     1  UNL1        0.0157
      9 C         142.2929  140.4539  160.3523 C.3     1  UNL1        0.0938
     10 C         142.4551  139.2657  159.4512 C.3     1  UNL1        0.1148
     11 N         142.1731  139.1609  157.9817 N.ar    1  UNL1       -0.3269
     12 C         141.6592  140.2185  157.0503 C.ar    1  UNL1        0.0555
     13 C         141.5471  139.6159  155.6813 C.ar    1  UNL1       -0.0053
     14 C         141.9918  138.1858  155.7666 C.ar    1  UNL1        0.0132
     15 C         142.0944  137.1032  154.7333 C.ar    1  UNL1        0.0013
     16 C         142.5838  135.7396  155.1218 C.ar    1  UNL1        0.0046
     17 C         142.9707  135.4585  156.5435 C.ar    1  UNL1        0.0563
     18 C         142.8681  136.5410  157.5768 C.ar    1  UNL1        0.0217
     19 C         142.3787  137.9047  157.1883 C.ar    1  UNL1        0.0597
     20 C         142.7937  139.5538  161.4428 C.2     1  UNL1        0.2268
     21 O         144.2595  139.4997  161.7566 O.2     1  UNL1       -0.2748
     22 N         141.8287  138.7077  162.2193 N.am    1  UNL1       -0.2800
     23 C         140.3429  138.6561  162.0198 C.3     1  UNL1        0.0913
     24 C         139.7761  137.6812  163.0090 C.3     1  UNL1        0.0230
     25 C         140.9116  137.1304  163.8197 C.3     1  UNL1        0.0230
     26 C         142.1801  137.7648  163.3317 C.3     1  UNL1        0.0913
     27 C         143.2746  138.5480  162.6476 C.3     1  UNL1        0.0922
     28 N         142.7737  139.4481  161.5571 N.3     1  UNL1       -0.2687
     29 C         143.7387  140.2942  160.7805 C.3     1  UNL1        0.0897
     30 C         141.3079  139.5021  161.2433 C.3     1  UNL1        0.0922
     31 C         141.0736  140.3196  154.4442 C.3     1  UNL1        0.0238
     32 C         142.0560  141.0385  153.5677 C.3     1  UNL1        0.0044
     33 C         141.5825  141.7422  152.3307 C.3     1  UNL1        0.0003
     34 C         140.1265  141.7271  151.9699 C.3     1  UNL1        0.0000
     35 C         139.1442  141.0082  152.8463 C.3     1  UNL1        0.0003
     36 C         139.6177  140.3044  154.0835 C.3     1  UNL1        0.0044
     37 C         143.4602  134.0949  156.9320 C.2     1  UNL1        0.2651
     38 O         143.9466  133.8423  158.3283 O.2     1  UNL1       -0.2685
     39 N         143.4633  132.9839  155.9242 N.am    1  UNL1       -0.1714
     40 H         143.1441  133.1497  155.0078 H       1  UNL1        0.1779
     41 S         143.9528  131.6202  156.3126 S.O2    1  UNL1        0.1154
     42 O         145.3703  132.0815  156.1463 O.2     1  UNL1       -0.1378
     43 O         142.5351  131.1589  156.4789 O.2     1  UNL1       -0.1378
     44 N         144.4421  130.2565  156.7010 N.3     1  UNL1       -0.1398
     45 C         144.6132  129.9055  158.1493 C.3     1  UNL1        0.1163
     46 C         144.7603  129.2440  155.6411 C.3     1  UNL1        0.1163
     47 C         139.6639  146.7053  156.3919 C.3     1  UNL1        0.2525
     48 O         140.0699  145.9619  157.6299 O.3     1  UNL1       -0.4714
@<TRIPOS>BOND
     1    47    48    1
     2    48     1    1
     3     1     2   ar
     4     2     3   ar
     5     3     4   ar
     6     4     5   ar
     7     5     6   ar
     8     5     7    1
     9     7     8    1
    10     8     9    1
    11     9    20    1
    12    20    21    2
    13    20    22   am
    14    22    23    1
    15    23    24    1
    16    24    25    1
    17    25    26    1
    18    26    27    1
    19    27    28    1
    20    28    29    1
    21    28    30    1
    22     9    10    1
    23    10    11    1
    24    11    12   ar
    25    12    13   ar
    26    13    31    1
    27    31    32    1
    28    32    33    1
    29    33    34    1
    30    34    35    1
    31    35    36    1
    32    13    14   ar
    33    14    15   ar
    34    15    16   ar
    35    16    17   ar
    36    17    37    1
    37    37    38    2
    38    37    39   am
    39    39    41    1
    40    41    42    2
    41    41    43    2
    42    41    44    1
    43    44    45    1
    44    44    46    1
    45    17    18   ar
    46    18    19   ar
    47     6     1   ar
    48     9     7    1
    49    26    22    1
    50    19    11   ar
    51    12     4    1
    52    36    31    1
    53    19    14   ar
    54    30    23    1
    55    39    40    1
@<TRIPOS>MOLECULE
*****
 48 55 0 0 0
SMALL
GASTEIGER

@<TRIPOS>ATOM
      1 C         141.7588  142.3930  155.0315 C.ar    1  UNL1        0.1384
      2 C         141.6803  140.9229  155.3189 C.ar    1  UNL1        0.0369
      3 C         141.4621  140.4439  156.7236 C.ar    1  UNL1        0.0042
      4 C         141.3223  141.4349  157.8407 C.ar    1  UNL1        0.0117
      5 C         141.4007  142.9051  157.5534 C.ar    1  UNL1       -0.0176
      6 C         141.6190  143.3842  156.1488 C.ar    1  UNL1        0.0327
      7 C         141.2880  144.0529  158.5126 C.3     1  UNL1        0.0330
      8 C         141.2049  145.3316  159.2922 C.3     1  UNL1        0.0157
      9 C         141.0690  144.0139  159.9960 C.3     1  UNL1        0.0938
     10 C         140.9087  142.8176  160.8866 C.3     1  UNL1        0.1148
     11 N         140.9277  141.3648  160.5139 N.ar    1  UNL1       -0.3269
     12 C         141.1118  140.7495  159.1583 C.ar    1  UNL1        0.0555
     13 C         141.0523  139.2588  159.3139 C.ar    1  UNL1       -0.0053
     14 C         140.8314  138.9529  160.7657 C.ar    1  UNL1        0.0132
     15 C         140.6904  137.6571  161.5083 C.ar    1  UNL1        0.0013
     16 C         140.4724  137.6631  162.9924 C.ar    1  UNL1        0.0046
     17 C         140.3955  138.9647  163.7339 C.ar    1  UNL1        0.0563
     18 C         140.5365  140.2604  162.9914 C.ar    1  UNL1        0.0217
     19 C         140.7544  140.2545  161.5072 C.ar    1  UNL1        0.0597
     20 C         140.9053  144.8263  161.2464 C.2     1  UNL1        0.2268
     21 O         139.6320  145.5812  161.4889 O.2     1  UNL1       -0.2748
     22 N         142.0148  144.8835  162.2541 N.am    1  UNL1       -0.2800
     23 C         143.3382  144.1852  162.1492 C.3     1  UNL1        0.0913
     24 C         144.1370  144.5194  163.3741 C.3     1  UNL1        0.0230
     25 C         143.3072  145.4242  164.2360 C.3     1  UNL1        0.0230
     26 C         141.9957  145.6493  163.5438 C.3     1  UNL1        0.0913
     27 C         140.7916  145.6952  162.6343 C.3     1  UNL1        0.0922
     28 N         140.9554  144.8829  161.3839 N.3     1  UNL1       -0.2687
     29 C         139.8459  144.8255  160.3761 C.3     1  UNL1        0.0897
     30 C         142.2286  144.1279  161.1414 C.3     1  UNL1        0.0922
     31 C         141.1895  138.2510  158.2115 C.3     1  UNL1        0.0238
     32 C         140.0037  137.9036  157.3610 C.3     1  UNL1        0.0044
     33 C         140.1408  136.8958  156.2586 C.3     1  UNL1        0.0003
     34 C         141.4638  136.2353  156.0066 C.3     1  UNL1        0.0000
     35 C         142.6496  136.5826  156.8571 C.3     1  UNL1        0.0003
     36 C         142.5124  137.5905  157.9595 C.3     1  UNL1        0.0044
     37 C         140.1775  138.9707  165.2179 C.2     1  UNL1        0.2651
     38 O         139.1982  138.0173  165.8360 O.2     1  UNL1       -0.2685
     39 N         140.9388  139.9301  166.0840 N.am    1  UNL1       -0.1714
     40 H         141.5816  140.5558  165.6783 H       1  UNL1        0.1779
     41 S         140.7209  139.9361  167.5680 S.O2    1  UNL1        0.1154
     42 O         142.0059  139.1866  167.7598 O.2     1  UNL1       -0.1378
     43 O         139.4359  140.6858  167.3762 O.2     1  UNL1       -0.1378
     44 N         140.5030  139.9422  169.0521 N.3     1  UNL1       -0.1398
     45 C         141.6192  139.5536  169.9757 C.3     1  UNL1        0.1163
     46 C         139.1688  140.3370  169.6125 C.3     1  UNL1        0.1163
     47 C         143.2261  143.6251  153.2769 C.3     1  UNL1        0.2525
     48 O         141.9770  142.8720  153.6270 O.3     1  UNL1       -0.4714
@<TRIPOS>BOND
     1    47    48    1
     2    48     1    1
     3     1     2   ar
     4     2     3   ar
     5     3     4   ar
     6     4     5   ar
     7     5     6   ar
     8     5     7    1
     9     7     8    1
    10     8     9    1
    11     9    20    1
    12    20    21    2
    13    20    22   am
    14    22    23    1
    15    23    24    1
    16    24    25    1
    17    25    26    1
    18    26    27    1
    19    27    28    1
    20    28    29    1
    21    28    30    1
    22     9    10    1
    23    10    11    1
    24    11    12   ar
    25    12    13   ar
    26    13    31    1
    27    31    32    1
    28    32    33    1
    29    33    34    1
    30    34    35    1
    31    35    36    1
    32    13    14   ar
    33    14    15   ar
    34    15    16   ar
    35    16    17   ar
    36    17    37    1
    37    37    38    2
    38    37    39   am
    39    39    41    1
    40    41    42    2
    41    41    43    2
    42    41    44    1
    43    44    45    1
    44    44    46    1
    45    17    18   ar
    46    18    19   ar
    47     6     1   ar
    48     9     7    1
    49    26    22    1
    50    19    11   ar
    51    12     4    1
    52    36    31    1
    53    19    14   ar
    54    30    23    1
    55    39    40    1
@<TRIPOS>MOLECULE
*****
 48 55 0 0 0
SMALL
GASTEIGER

@<TRIPOS>ATOM
      1 C         140.4868  143.7548  163.6160 C.ar    1  UNL1        0.1384
      2 C         141.1667  142.4903  164.0504 C.ar    1  UNL1        0.0369
      3 C         141.4905  141.4282  163.0419 C.ar    1  UNL1        0.0042
      4 C         141.1343  141.6305  161.5990 C.ar    1  UNL1        0.0117
      5 C         140.4543  142.8950  161.1645 C.ar    1  UNL1       -0.0176
      6 C         140.1306  143.9572  162.1730 C.ar    1  UNL1        0.0327
      7 C         140.0157  143.2953  159.7870 C.3     1  UNL1        0.0330
      8 C         139.5045  143.8846  158.5058 C.3     1  UNL1        0.0157
      9 C         140.1487  142.5300  158.5038 C.3     1  UNL1        0.0938
     10 C         140.7532  141.1754  158.2812 C.3     1  UNL1        0.1148
     11 N         141.3740  140.2514  159.2867 N.ar    1  UNL1       -0.3269
     12 C         141.5436  140.4540  160.7633 C.ar    1  UNL1        0.0555
     13 C         142.2224  139.2392  161.3229 C.ar    1  UNL1       -0.0053
     14 C         142.4724  138.2858  160.1922 C.ar    1  UNL1        0.0132
     15 C         143.1099  136.9287  160.1458 C.ar    1  UNL1        0.0013
     16 C         143.2229  136.1973  158.8411 C.ar    1  UNL1        0.0046
     17 C         142.6985  136.8230  157.5827 C.ar    1  UNL1        0.0563
     18 C         142.0611  138.1800  157.6290 C.ar    1  UNL1        0.0217
     19 C         141.9480  138.9115  158.9337 C.ar    1  UNL1        0.0597
     20 C         139.8829  142.5299  157.0275 C.2     1  UNL1        0.2268
     21 O         140.9089  143.0781  156.0806 O.2     1  UNL1       -0.2748
     22 N         138.5909  141.9816  156.4982 N.am    1  UNL1       -0.2800
     23 C         137.4764  141.4033  157.3189 C.3     1  UNL1        0.0913
     24 C         136.3833  140.9796  156.3831 C.3     1  UNL1        0.0230
     25 C         136.8223  141.2960  154.9841 C.3     1  UNL1        0.0230
     26 C         138.1866  141.9153  155.0553 C.3     1  UNL1        0.0913
     27 C         139.5286  142.4997  155.4250 C.3     1  UNL1        0.0922
     28 N         139.7945  142.4998  156.9013 N.3     1  UNL1       -0.2687
     29 C         141.0864  143.0481  157.4307 C.3     1  UNL1        0.0897
     30 C         138.7684  141.9516  157.8482 C.3     1  UNL1        0.0922
     31 C         142.5873  139.0167  162.7607 C.3     1  UNL1        0.0238
     32 C         143.9102  139.4952  163.2815 C.3     1  UNL1        0.0044
     33 C         144.2751  139.2728  164.7192 C.3     1  UNL1        0.0003
     34 C         143.3172  138.5718  165.6363 C.3     1  UNL1        0.0000
     35 C         141.9944  138.0934  165.1156 C.3     1  UNL1        0.0003
     36 C         141.6294  138.3158  163.6778 C.3     1  UNL1        0.0044
     37 C         142.8115  136.0916  156.2780 C.2     1  UNL1        0.2651
     38 O         143.9442  136.3962  155.3431 O.2     1  UNL1       -0.2685
     39 N         141.7917  135.0556  155.9081 N.am    1  UNL1       -0.1714
     40 H         141.0482  134.8556  156.5217 H       1  UNL1        0.1779
     41 S         141.9046  134.3242  154.6034 S.O2    1  UNL1        0.1154
     42 O         142.7519  133.2772  155.2636 O.2     1  UNL1       -0.1378
     43 O         141.0572  135.3712  153.9432 O.2     1  UNL1       -0.1378
     44 N         142.0175  133.5928  153.2987 N.3     1  UNL1       -0.1398
     45 C         142.5222  132.1805  153.2718 C.3     1  UNL1        0.1163
     46 C         141.6256  134.2737  152.0210 C.3     1  UNL1        0.1163
     47 C         138.8067  144.8556  165.2638 C.3     1  UNL1        0.2525
     48 O         140.1631  144.8169  164.6244 O.3     1  UNL1       -0.4714
@<TRIPOS>BOND
     1    47    48    1
     2    48     1    1
     3     1     2   ar
     4     2     3   ar
     5     3     4   ar
     6     4     5   ar
     7     5     6   ar
     8     5     7    1
     9     7     8    1
    10     8     9    1
    11     9    20    1
    12    20    21    2
    13    20    22   am
    14    22    23    1
    15    23    24    1
    16    24    25    1
    17    25    26    1
    18    26    27    1
    19    27    28    1
    20    28    29    1
    21    28    30    1
    22     9    10    1
    23    10    11    1
    24    11    12   ar
    25    12    13   ar
    26    13    31    1
    27    31    32    1
    28    32    33    1
    29    33    34    1
    30    34    35    1
    31    35    36    1
    32    13    14   ar
    33    14    15   ar
    34    15    16   ar
    35    16    17   ar
    36    17    37    1
    37    37    38    2
    38    37    39   am
    39    39    41    1
    40    41    42    2
    41    41    43    2
    42    41    44    1
    43    44    45    1
    44    44    46    1
    45    17    18   ar
    46    18    19   ar
    47     6     1   ar
    48     9     7    1
    49    26    22    1
    50    19    11   ar
    51    12     4    1
    52    36    31    1
    53    19    14   ar
    54    30    23    1
    55    39    40    1
@<TRIPOS>MOLECULE
*****
 48 55 0 0 0
SMALL
GASTEIGER

@<TRIPOS>ATOM
      1 C         140.4685  141.7188  154.0153 C.ar    1  UNL1        0.1384
      2 C         141.0782  140.3890  154.3468 C.ar    1  UNL1        0.0369
      3 C         141.4814  140.0796  155.7581 C.ar    1  UNL1        0.0042
      4 C         141.2748  141.0999  156.8379 C.ar    1  UNL1        0.0117
      5 C         140.6651  142.4298  156.5066 C.ar    1  UNL1       -0.0176
      6 C         140.2619  142.7392  155.0952 C.ar    1  UNL1        0.0327
      7 C         140.3736  143.5798  157.4244 C.3     1  UNL1        0.0330
      8 C         140.0038  144.8338  158.1597 C.3     1  UNL1        0.0157
      9 C         140.6199  143.6841  158.9004 C.3     1  UNL1        0.0938
     10 C         141.2185  142.6641  159.8229 C.3     1  UNL1        0.1148
     11 N         141.7187  141.2878  159.4976 N.ar    1  UNL1       -0.3269
     12 C         141.7437  140.5918  158.1690 C.ar    1  UNL1        0.0555
     13 C         142.3408  139.2306  158.3701 C.ar    1  UNL1       -0.0053
     14 C         142.6848  139.0854  159.8229 C.ar    1  UNL1        0.0132
     15 C         143.2986  137.9596  160.6015 C.ar    1  UNL1        0.0013
     16 C         143.5277  138.1053  162.0767 C.ar    1  UNL1        0.0046
     17 C         143.1432  139.3768  162.7734 C.ar    1  UNL1        0.0563
     18 C         142.5295  140.5026  161.9949 C.ar    1  UNL1        0.0217
     19 C         142.3003  140.3569  160.5197 C.ar    1  UNL1        0.0597
     20 C         140.5028  144.5521  160.1182 C.2     1  UNL1        0.2268
     21 O         141.4212  145.7248  160.2945 O.2     1  UNL1       -0.2748
     22 N         139.4672  144.2472  161.1596 N.am    1  UNL1       -0.2800
     23 C         138.4843  143.1148  161.1206 C.3     1  UNL1        0.0913
     24 C         137.6423  143.1890  162.3599 C.3     1  UNL1        0.0230
     25 C         138.1050  144.3672  163.1648 C.3     1  UNL1        0.0230
     26 C         139.2328  145.0212  162.4229 C.3     1  UNL1        0.0913
     27 C         140.3211  145.4604  161.4733 C.3     1  UNL1        0.0922
     28 N         140.4383  144.5925  160.2554 N.3     1  UNL1       -0.2687
     29 C         141.4738  144.8973  159.2139 C.3     1  UNL1        0.0897
     30 C         139.5198  143.4197  160.0792 C.3     1  UNL1        0.0922
     31 C         142.5562  138.1961  157.3055 C.3     1  UNL1        0.0238
     32 C         143.7805  138.2536  156.4406 C.3     1  UNL1        0.0044
     33 C         143.9958  137.2192  155.3761 C.3     1  UNL1        0.0003
     34 C         142.9870  136.1272  155.1762 C.3     1  UNL1        0.0000
     35 C         141.7628  136.0698  156.0410 C.3     1  UNL1        0.0003
     36 C         141.5473  137.1042  157.1057 C.3     1  UNL1        0.0044
     37 C         143.3724  139.5226  164.2486 C.2     1  UNL1        0.2651
     38 O         144.6146  138.9604  164.8738 O.2     1  UNL1       -0.2685
     39 N         142.3594  140.2306  165.0986 N.am    1  UNL1       -0.1714
     40 H         141.5441  140.5996  164.6883 H       1  UNL1        0.1779
     41 S         142.5885  140.3764  166.5738 S.O2    1  UNL1        0.1154
     42 O         141.9169  139.0559  166.8087 O.2     1  UNL1       -0.1378
     43 O         143.2601  141.6970  166.3389 O.2     1  UNL1       -0.1378
     44 N         142.8176  140.5223  168.0490 N.3     1  UNL1       -0.1398
     45 C         143.2129  141.8524  168.6187 C.3     1  UNL1        0.1163
     46 C         142.6514  139.3381  168.9545 C.3     1  UNL1        0.1163
     47 C         139.0756  143.1214  152.3294 C.3     1  UNL1        0.2525
     48 O         140.0653  142.0282  152.6041 O.3     1  UNL1       -0.4714
@<TRIPOS>BOND
     1    47    48    1
     2    48     1    1
     3     1     2   ar
     4     2     3   ar
     5     3     4   ar
     6     4     5   ar
     7     5     6   ar
     8     5     7    1
     9     7     8    1
    10     8     9    1
    11     9    20    1
    12    20    21    2
    13    20    22   am
    14    22    23    1
    15    23    24    1
    16    24    25    1
    17    25    26    1
    18    26    27    1
    19    27    28    1
    20    28    29    1
    21    28    30    1
    22     9    10    1
    23    10    11    1
    24    11    12   ar
    25    12    13   ar
    26    13    31    1
    27    31    32    1
    28    32    33    1
    29    33    34    1
    30    34    35    1
    31    35    36    1
    32    13    14   ar
    33    14    15   ar
    34    15    16   ar
    35    16    17   ar
    36    17    37    1
    37    37    38    2
    38    37    39   am
    39    39    41    1
    40    41    42    2
    41    41    43    2
    42    41    44    1
    43    44    45    1
    44    44    46    1
    45    17    18   ar
    46    18    19   ar
    47     6     1   ar
    48     9     7    1
    49    26    22    1
    50    19    11   ar
    51    12     4    1
    52    36    31    1
    53    19    14   ar
    54    30    23    1
    55    39    40    1
@<TRIPOS>MOLECULE
*****
 48 55 0 0 0
SMALL
GASTEIGER

@<TRIPOS>ATOM
      1 C         139.8715  143.5055  163.1373 C.ar    1  UNL1        0.1384
      2 C         140.8641  142.4608  163.5536 C.ar    1  UNL1        0.0369
      3 C         141.2376  141.3607  162.6047 C.ar    1  UNL1        0.0042
      4 C         140.6185  141.3054  161.2396 C.ar    1  UNL1        0.0117
      5 C         139.6259  142.3501  160.8233 C.ar    1  UNL1       -0.0176
      6 C         139.2523  143.4502  161.7721 C.ar    1  UNL1        0.0327
      7 C         138.8961  142.4799  159.5192 C.3     1  UNL1        0.0330
      8 C         138.0720  142.7920  158.3054 C.3     1  UNL1        0.0157
      9 C         138.9787  141.5971  158.3093 C.3     1  UNL1        0.0938
     10 C         139.8115  140.3664  158.1048 C.3     1  UNL1        0.1148
     11 N         140.7674  139.7145  159.0594 N.ar    1  UNL1       -0.3269
     12 C         141.1265  140.1324  160.4546 C.ar    1  UNL1        0.0555
     13 C         142.1278  139.1518  160.9890 C.ar    1  UNL1       -0.0053
     14 C         142.3875  138.1278  159.9241 C.ar    1  UNL1        0.0132
     15 C         143.2810  136.9234  159.8862 C.ar    1  UNL1        0.0013
     16 C         143.3337  136.0671  158.6559 C.ar    1  UNL1        0.0046
     17 C         142.4929  136.4149  157.4634 C.ar    1  UNL1        0.0563
     18 C         141.5994  137.6191  157.5012 C.ar    1  UNL1        0.0217
     19 C         141.5467  138.4756  158.7316 C.ar    1  UNL1        0.0597
     20 C         138.4841  141.3578  156.9136 C.2     1  UNL1        0.2268
     21 O         137.2749  140.5005  156.6830 O.2     1  UNL1       -0.2748
     22 N         139.1986  141.9758  155.7484 N.am    1  UNL1       -0.2800
     23 C         140.4143  142.8512  155.8232 C.3     1  UNL1        0.0913
     24 C         140.7898  143.2432  154.4248 C.3     1  UNL1        0.0230
     25 C         139.8061  142.6101  153.4859 C.3     1  UNL1        0.0230
     26 C         138.8227  141.8268  154.3039 C.3     1  UNL1        0.0913
     27 C         137.9960  141.1366  155.3620 C.3     1  UNL1        0.0922
     28 N         138.4907  141.3759  156.7578 N.3     1  UNL1       -0.2687
     29 C         137.7762  140.7580  157.9230 C.3     1  UNL1        0.0897
     30 C         139.6998  142.2332  156.9883 C.3     1  UNL1        0.0922
     31 C         142.7586  139.1885  162.3493 C.3     1  UNL1        0.0238
     32 C         144.0592  139.9076  162.5538 C.3     1  UNL1        0.0044
     33 C         144.6900  139.9444  163.9140 C.3     1  UNL1        0.0003
     34 C         144.0205  139.2622  165.0701 C.3     1  UNL1        0.0000
     35 C         142.7201  138.5431  164.8656 C.3     1  UNL1        0.0003
     36 C         142.0892  138.5063  163.5053 C.3     1  UNL1        0.0044
     37 C         142.5456  135.5585  156.2330 C.2     1  UNL1        0.2651
     38 O         143.8675  135.2243  155.6079 O.2     1  UNL1       -0.2685
     39 N         141.2763  135.0364  155.6277 N.am    1  UNL1       -0.1714
     40 H         140.4087  135.2557  156.0380 H       1  UNL1        0.1779
     41 S         141.3289  134.1800  154.3974 S.O2    1  UNL1        0.1154
     42 O         141.3753  132.9503  155.2551 O.2     1  UNL1       -0.1378
     43 O         141.2824  135.4097  153.5396 O.2     1  UNL1       -0.1378
     44 N         141.3815  133.3237  153.1670 N.3     1  UNL1       -0.1398
     45 C         140.4151  133.5628  152.0449 C.3     1  UNL1        0.1163
     46 C         142.4003  132.2282  153.0586 C.3     1  UNL1        0.1163
     47 C         138.2714  144.4755  164.9397 C.3     1  UNL1        0.2525
     48 O         139.4980  144.6056  164.0862 O.3     1  UNL1       -0.4714
@<TRIPOS>BOND
     1    47    48    1
     2    48     1    1
     3     1     2   ar
     4     2     3   ar
     5     3     4   ar
     6     4     5   ar
     7     5     6   ar
     8     5     7    1
     9     7     8    1
    10     8     9    1
    11     9    20    1
    12    20    21    2
    13    20    22   am
    14    22    23    1
    15    23    24    1
    16    24    25    1
    17    25    26    1
    18    26    27    1
    19    27    28    1
    20    28    29    1
    21    28    30    1
    22     9    10    1
    23    10    11    1
    24    11    12   ar
    25    12    13   ar
    26    13    31    1
    27    31    32    1
    28    32    33    1
    29    33    34    1
    30    34    35    1
    31    35    36    1
    32    13    14   ar
    33    14    15   ar
    34    15    16   ar
    35    16    17   ar
    36    17    37    1
    37    37    38    2
    38    37    39   am
    39    39    41    1
    40    41    42    2
    41    41    43    2
    42    41    44    1
    43    44    45    1
    44    44    46    1
    45    17    18   ar
    46    18    19   ar
    47     6     1   ar
    48     9     7    1
    49    26    22    1
    50    19    11   ar
    51    12     4    1
    52    36    31    1
    53    19    14   ar
    54    30    23    1
    55    39    40    1
@<TRIPOS>MOLECULE
*****
 48 55 0 0 0
SMALL
GASTEIGER

@<TRIPOS>ATOM
      1 C         140.0146  142.9466  155.9119 C.ar    1  UNL1        0.1384
      2 C         140.3385  141.4861  156.0213 C.ar    1  UNL1        0.0369
      3 C         140.6390  140.8828  157.3614 C.ar    1  UNL1        0.0042
      4 C         140.6156  141.7400  158.5920 C.ar    1  UNL1        0.0117
      5 C         140.2917  143.2005  158.4827 C.ar    1  UNL1       -0.0176
      6 C         139.9912  143.8039  157.1426 C.ar    1  UNL1        0.0327
      7 C         140.2148  144.2258  159.5749 C.3     1  UNL1        0.0330
      8 C         140.0862  145.3962  160.5043 C.3     1  UNL1        0.0157
      9 C         140.4429  144.0438  161.0463 C.3     1  UNL1        0.0938
     10 C         140.8042  142.7915  161.7887 C.3     1  UNL1        0.1148
     11 N         141.0266  141.4120  161.2434 N.ar    1  UNL1       -0.3269
     12 C         140.9427  140.9441  159.8207 C.ar    1  UNL1        0.0555
     13 C         141.2510  139.4763  159.7965 C.ar    1  UNL1       -0.0053
     14 C         141.5254  139.0372  161.2043 C.ar    1  UNL1        0.0132
     15 C         141.8837  137.7023  161.7876 C.ar    1  UNL1        0.0013
     16 C         142.1033  137.5640  163.2649 C.ar    1  UNL1        0.0046
     17 C         141.9646  138.7603  164.1591 C.ar    1  UNL1        0.0563
     18 C         141.6063  140.0951  163.5759 C.ar    1  UNL1        0.0217
     19 C         141.3867  140.2335  162.0984 C.ar    1  UNL1        0.0597
     20 C         140.4735  144.7139  162.3880 C.2     1  UNL1        0.2268
     21 O         141.6555  145.5488  162.7826 O.2     1  UNL1       -0.2748
     22 N         139.3220  144.5491  163.3350 N.am    1  UNL1       -0.2800
     23 C         138.0787  143.7493  163.0806 C.3     1  UNL1        0.0913
     24 C         137.1999  143.8611  164.2912 C.3     1  UNL1        0.0230
     25 C         137.9001  144.7300  165.2936 C.3     1  UNL1        0.0230
     26 C         139.2116  145.1552  164.7026 C.3     1  UNL1        0.0913
     27 C         140.4429  145.4191  163.8699 C.3     1  UNL1        0.0922
     28 N         140.4123  144.7490  162.5282 N.3     1  UNL1       -0.2687
     29 C         141.5638  144.9137  161.5811 C.3     1  UNL1        0.0897
     30 C         139.2302  143.9141  162.1336 C.3     1  UNL1        0.0922
     31 C         141.2798  138.6013  158.5786 C.3     1  UNL1        0.0238
     32 C         139.9956  138.1272  157.9652 C.3     1  UNL1        0.0044
     33 C         140.0243  137.2522  156.7473 C.3     1  UNL1        0.0003
     34 C         141.3373  136.8512  156.1426 C.3     1  UNL1        0.0000
     35 C         142.6214  137.3254  156.7559 C.3     1  UNL1        0.0003
     36 C         142.5926  138.2004  157.9739 C.3     1  UNL1        0.0044
     37 C         142.1841  138.6220  165.6364 C.2     1  UNL1        0.2651
     38 O         142.9830  137.4706  166.1714 O.2     1  UNL1       -0.2685
     39 N         141.6049  139.6350  166.5789 N.am    1  UNL1       -0.1714
     40 H         141.0806  140.3907  166.2278 H       1  UNL1        0.1779
     41 S         141.8244  139.4968  168.0563 S.O2    1  UNL1        0.1154
     42 O         143.3063  139.5937  167.8453 O.2     1  UNL1       -0.1378
     43 O         140.3424  139.3998  168.2673 O.2     1  UNL1       -0.1378
     44 N         142.0438  139.3585  169.5337 N.3     1  UNL1       -0.1398
     45 C         142.9354  138.2736  170.0612 C.3     1  UNL1        0.1163
     46 C         141.3717  140.3050  170.4835 C.3     1  UNL1        0.1163
     47 C         139.4148  145.0153  154.4593 C.3     1  UNL1        0.2525
     48 O         139.7140  143.5498  154.5719 O.3     1  UNL1       -0.4714
@<TRIPOS>BOND
     1    47    48    1
     2    48     1    1
     3     1     2   ar
     4     2     3   ar
     5     3     4   ar
     6     4     5   ar
     7     5     6   ar
     8     5     7    1
     9     7     8    1
    10     8     9    1
    11     9    20    1
    12    20    21    2
    13    20    22   am
    14    22    23    1
    15    23    24    1
    16    24    25    1
    17    25    26    1
    18    26    27    1
    19    27    28    1
    20    28    29    1
    21    28    30    1
    22     9    10    1
    23    10    11    1
    24    11    12   ar
    25    12    13   ar
    26    13    31    1
    27    31    32    1
    28    32    33    1
    29    33    34    1
    30    34    35    1
    31    35    36    1
    32    13    14   ar
    33    14    15   ar
    34    15    16   ar
    35    16    17   ar
    36    17    37    1
    37    37    38    2
    38    37    39   am
    39    39    41    1
    40    41    42    2
    41    41    43    2
    42    41    44    1
    43    44    45    1
    44    44    46    1
    45    17    18   ar
    46    18    19   ar
    47     6     1   ar
    48     9     7    1
    49    26    22    1
    50    19    11   ar
    51    12     4    1
    52    36    31    1
    53    19    14   ar
    54    30    23    1
    55    39    40    1
@<TRIPOS>MOLECULE
*****
 48 55 0 0 0
SMALL
GASTEIGER

@<TRIPOS>ATOM
      1 C         145.3784  142.5413  157.7830 C.ar    1  UNL1        0.1384
      2 C         145.0005  142.0999  156.4001 C.ar    1  UNL1        0.0369
      3 C         143.5710  141.7765  156.0805 C.ar    1  UNL1        0.0042
      4 C         142.5196  141.8946  157.1436 C.ar    1  UNL1        0.0117
      5 C         142.8974  142.3360  158.5265 C.ar    1  UNL1       -0.0176
      6 C         144.3269  142.6593  158.8462 C.ar    1  UNL1        0.0327
      7 C         142.0132  142.5185  159.7243 C.3     1  UNL1        0.0330
      8 C         141.3159  142.7615  161.0300 C.3     1  UNL1        0.0157
      9 C         140.5326  142.3048  159.8351 C.3     1  UNL1        0.0938
     10 C         139.5707  141.8557  158.7754 C.3     1  UNL1        0.1148
     11 N         139.8516  141.5094  157.3432 N.ar    1  UNL1       -0.3269
     12 C         141.1640  141.5267  156.6170 C.ar    1  UNL1        0.0555
     13 C         140.9161  141.0978  155.2012 C.ar    1  UNL1       -0.0053
     14 C         139.4505  140.8153  155.0525 C.ar    1  UNL1        0.0132
     15 C         138.6298  140.3593  153.8825 C.ar    1  UNL1        0.0013
     16 C         137.1514  140.1577  154.0364 C.ar    1  UNL1        0.0046
     17 C         136.4936  140.4122  155.3602 C.ar    1  UNL1        0.0563
     18 C         137.3142  140.8681  156.5301 C.ar    1  UNL1        0.0217
     19 C         138.7926  141.0698  156.3763 C.ar    1  UNL1        0.0597
     20 C         139.3373  142.3557  160.7399 C.2     1  UNL1        0.2268
     21 O         138.5382  143.6197  160.8564 O.2     1  UNL1       -0.2748
     22 N         138.9412  141.1426  161.5282 N.am    1  UNL1       -0.2800
     23 C         139.6399  139.8153  161.5145 C.3     1  UNL1        0.0913
     24 C         138.9073  138.8962  162.4465 C.3     1  UNL1        0.0230
     25 C         137.7558  139.6555  163.0361 C.3     1  UNL1        0.0230
     26 C         137.7768  141.0437  162.4686 C.3     1  UNL1        0.0913
     27 C         138.0416  142.3434  161.7476 C.3     1  UNL1        0.0922
     28 N         139.2369  142.2925  160.8427 N.3     1  UNL1       -0.2687
     29 C         139.6331  143.5056  160.0544 C.3     1  UNL1        0.0897
     30 C         140.0360  141.0285  160.7263 C.3     1  UNL1        0.0922
     31 C         141.9518  140.9731  154.1234 C.3     1  UNL1        0.0238
     32 C         142.2730  142.1511  153.2520 C.3     1  UNL1        0.0044
     33 C         143.3087  142.0265  152.1743 C.3     1  UNL1        0.0003
     34 C         144.0233  140.7239  151.9678 C.3     1  UNL1        0.0000
     35 C         143.7021  139.5460  152.8391 C.3     1  UNL1        0.0003
     36 C         142.6664  139.6706  153.9169 C.3     1  UNL1        0.0044
     37 C         135.0152  140.2106  155.5142 C.2     1  UNL1        0.2651
     38 O         134.1170  140.3023  154.3163 O.2     1  UNL1       -0.2685
     39 N         134.4350  139.9172  156.8660 N.am    1  UNL1       -0.1714
     40 H         135.0245  139.8570  157.6521 H       1  UNL1        0.1779
     41 S         132.9566  139.7157  157.0200 S.O2    1  UNL1        0.1154
     42 O         132.7089  141.0603  156.4031 O.2     1  UNL1       -0.1378
     43 O         133.2044  138.3709  157.6369 O.2     1  UNL1       -0.1378
     44 N         131.4783  139.5140  157.1741 N.3     1  UNL1       -0.1398
     45 C         130.9572  138.4987  158.1476 C.3     1  UNL1        0.1163
     46 C         130.5210  140.3276  156.3546 C.3     1  UNL1        0.1163
     47 C         147.8406  142.8536  157.0149 C.3     1  UNL1        0.2525
     48 O         146.8078  142.8646  158.1027 O.3     1  UNL1       -0.4714
@<TRIPOS>BOND
     1    47    48    1
     2    48     1    1
     3     1     2   ar
     4     2     3   ar
     5     3     4   ar
     6     4     5   ar
     7     5     6   ar
     8     5     7    1
     9     7     8    1
    10     8     9    1
    11     9    20    1
    12    20    21    2
    13    20    22   am
    14    22    23    1
    15    23    24    1
    16    24    25    1
    17    25    26    1
    18    26    27    1
    19    27    28    1
    20    28    29    1
    21    28    30    1
    22     9    10    1
    23    10    11    1
    24    11    12   ar
    25    12    13   ar
    26    13    31    1
    27    31    32    1
    28    32    33    1
    29    33    34    1
    30    34    35    1
    31    35    36    1
    32    13    14   ar
    33    14    15   ar
    34    15    16   ar
    35    16    17   ar
    36    17    37    1
    37    37    38    2
    38    37    39   am
    39    39    41    1
    40    41    42    2
    41    41    43    2
    42    41    44    1
    43    44    45    1
    44    44    46    1
    45    17    18   ar
    46    18    19   ar
    47     6     1   ar
    48     9     7    1
    49    26    22    1
    50    19    11   ar
    51    12     4    1
    52    36    31    1
    53    19    14   ar
    54    30    23    1
    55    39    40    1
