@<TRIPOS>MOLECULE
*****
 39 43 0 0 0
SMALL
GASTEIGER

@<TRIPOS>ATOM
      1 C         142.8978  143.6311  161.3722 C.3     1  UNL1        0.0993
      2 N         142.3350  144.1450  160.0801 N.3     1  UNL1       -0.2687
      3 C         142.9241  143.6983  158.7751 C.3     1  UNL1        0.0760
      4 C         142.3614  144.2122  157.4831 C.3     1  UNL1        0.0575
      5 C         141.2095  145.1730  157.4963 C.3     1  UNL1        0.1391
      6 C         140.6204  145.6197  158.8014 C.3     1  UNL1        0.0575
      7 C         141.1831  145.1058  160.0933 C.3     1  UNL1        0.0760
      8 C         140.0655  146.1325  157.3527 C.3     1  UNL1        0.0516
      9 C         139.8409  146.3702  155.8887 C.3     1  UNL1        0.1068
     10 C         140.8461  145.5576  155.1276 C.2     1  UNL1        0.3167
     11 O         140.9817  145.4957  153.6351 O.2     1  UNL1       -0.2501
     12 O         141.6919  144.8177  156.1211 O.3     1  UNL1       -0.4556
     13 C         138.7948  147.2636  155.2908 C.3     1  UNL1        0.0376
     14 C         139.0950  148.7134  155.0503 C.ar    1  UNL1       -0.0215
     15 C         138.5799  149.7536  156.0005 C.ar    1  UNL1       -0.0019
     16 C         138.8801  151.2035  155.7600 C.ar    1  UNL1        0.0293
     17 C         139.6955  151.6131  154.5694 C.ar    1  UNL1        0.1401
     18 F         139.9957  153.0630  154.3289 F       1  UNL1       -0.2042
     19 C         140.2106  150.5729  153.6193 C.ar    1  UNL1        0.0293
     20 C         139.9104  149.1230  153.8598 C.ar    1  UNL1       -0.0019
     21 C         139.9453  141.2786  162.5963 C.ar    1  UNL1        0.1411
     22 C         140.7297  142.2567  161.7729 C.ar    1  UNL1        0.0342
     23 C         142.1133  142.6530  162.1955 C.ar    1  UNL1       -0.0001
     24 C         142.7125  142.0711  163.4415 C.ar    1  UNL1        0.0342
     25 C         141.9281  141.0930  164.2649 C.ar    1  UNL1        0.1411
     26 C         140.5444  140.6968  163.8423 C.ar    1  UNL1        0.0679
     27 C         139.7600  139.7187  164.6656 C.ar    1  UNL1        0.0060
     28 C         139.0196  140.1872  165.8831 C.ar    1  UNL1        0.0025
     29 C         138.2351  139.2090  166.7065 C.ar    1  UNL1        0.0296
     30 C         138.1911  137.7624  166.3124 C.ar    1  UNL1        0.1401
     31 F         137.4066  136.7844  167.1357 F       1  UNL1       -0.2042
     32 C         138.9315  137.2939  165.0949 C.ar    1  UNL1        0.0296
     33 C         139.7159  138.2720  164.2715 C.ar    1  UNL1        0.0025
     34 O         138.5617  140.8823  162.1737 O.3     1  UNL1       -0.4754
     35 C         137.5536  142.7963  163.6127 C.3     1  UNL1        0.0512
     36 C         137.3693  141.5663  162.7742 C.3     1  UNL1        0.2055
     37 O         142.5272  140.5112  165.5108 O.3     1  UNL1       -0.4754
     38 C         143.4802  139.3567  165.4164 C.3     1  UNL1        0.2055
     39 C         143.4639  138.2830  166.4637 C.3     1  UNL1        0.0512
@<TRIPOS>BOND
     1    35    36    1
     2    36    34    1
     3    34    21    1
     4    21    22   ar
     5    22    23   ar
     6    23     1    1
     7     1     2    1
     8     2     3    1
     9     3     4    1
    10     4     5    1
    11     5     6    1
    12     6     7    1
    13     5     8    1
    14     8     9    1
    15     9    13    1
    16    13    14    1
    17    14    15   ar
    18    15    16   ar
    19    16    17   ar
    20    17    18    1
    21    17    19   ar
    22    19    20   ar
    23     9    10    1
    24    10    11    2
    25    10    12    1
    26    23    24   ar
    27    24    25   ar
    28    25    37    1
    29    37    38    1
    30    38    39    1
    31    25    26   ar
    32    26    27    1
    33    27    28   ar
    34    28    29   ar
    35    29    30   ar
    36    30    31    1
    37    30    32   ar
    38    32    33   ar
    39    26    21   ar
    40    33    27   ar
    41     7     2    1
    42    20    14   ar
    43    12     5    1
@<TRIPOS>MOLECULE
*****
 39 43 0 0 0
SMALL
GASTEIGER

@<TRIPOS>ATOM
      1 C         140.2757  141.7716  160.0801 C.3     1  UNL1        0.0993
      2 N         140.8731  140.6838  159.2375 N.3     1  UNL1       -0.2687
      3 C         142.2634  140.8335  158.6947 C.3     1  UNL1        0.0760
      4 C         142.8607  139.7458  157.8521 C.3     1  UNL1        0.0575
      5 C         142.0678  138.5083  157.5524 C.3     1  UNL1        0.1391
      6 C         140.6775  138.3585  158.0953 C.3     1  UNL1        0.0575
      7 C         140.0802  139.4462  158.9378 C.3     1  UNL1        0.0760
      8 C         141.3992  137.2209  157.1707 C.3     1  UNL1        0.0516
      9 C         142.3568  136.4338  156.3260 C.3     1  UNL1        0.1068
     10 C         143.6173  137.2348  156.1856 C.2     1  UNL1        0.3167
     11 O         144.8415  136.8256  155.4215 O.2     1  UNL1       -0.2501
     12 O         143.4387  138.5168  156.9436 O.3     1  UNL1       -0.4556
     13 C         142.0992  135.0830  155.7268 C.3     1  UNL1        0.0376
     14 C         142.7557  133.8667  156.3093 C.ar    1  UNL1       -0.0215
     15 C         142.2439  132.4998  155.9630 C.ar    1  UNL1       -0.0019
     16 C         142.9004  131.2834  156.5455 C.ar    1  UNL1        0.0293
     17 C         144.0687  131.4338  157.4742 C.ar    1  UNL1        0.1401
     18 F         144.7253  130.2173  158.0567 F       1  UNL1       -0.2042
     19 C         144.5805  132.8006  157.8205 C.ar    1  UNL1        0.0293
     20 C         143.9240  134.0171  157.2380 C.ar    1  UNL1       -0.0019
     21 C         138.9536  142.0335  163.8129 C.ar    1  UNL1        0.1411
     22 C         139.0386  142.1989  162.3244 C.ar    1  UNL1        0.0342
     23 C         140.1907  141.6062  161.5685 C.ar    1  UNL1       -0.0001
     24 C         141.2579  140.8481  162.3011 C.ar    1  UNL1        0.0342
     25 C         141.1728  140.6828  163.7895 C.ar    1  UNL1        0.1411
     26 C         140.0207  141.2754  164.5454 C.ar    1  UNL1        0.0679
     27 C         139.9357  141.1101  166.0338 C.ar    1  UNL1        0.0060
     28 C         140.5707  142.1241  166.9386 C.ar    1  UNL1        0.0025
     29 C         140.4857  141.9586  168.4271 C.ar    1  UNL1        0.0296
     30 C         139.7657  140.7793  169.0107 C.ar    1  UNL1        0.1401
     31 F         139.6807  140.6139  170.4991 F       1  UNL1       -0.2042
     32 C         139.1307  139.7653  168.1059 C.ar    1  UNL1        0.0296
     33 C         139.2157  139.9306  166.6175 C.ar    1  UNL1        0.0025
     34 O         137.8015  142.6261  164.5688 O.3     1  UNL1       -0.4754
     35 C         138.9908  144.8955  164.9994 C.3     1  UNL1        0.0512
     36 C         137.7315  144.1084  164.7883 C.3     1  UNL1        0.2055
     37 O         142.2400  139.9247  164.5220 O.3     1  UNL1       -0.4754
     38 C         142.3565  138.4391  164.3506 C.3     1  UNL1        0.2055
     39 C         141.1317  137.5767  164.4284 C.3     1  UNL1        0.0512
@<TRIPOS>BOND
     1    35    36    1
     2    36    34    1
     3    34    21    1
     4    21    22   ar
     5    22    23   ar
     6    23     1    1
     7     1     2    1
     8     2     3    1
     9     3     4    1
    10     4     5    1
    11     5     6    1
    12     6     7    1
    13     5     8    1
    14     8     9    1
    15     9    13    1
    16    13    14    1
    17    14    15   ar
    18    15    16   ar
    19    16    17   ar
    20    17    18    1
    21    17    19   ar
    22    19    20   ar
    23     9    10    1
    24    10    11    2
    25    10    12    1
    26    23    24   ar
    27    24    25   ar
    28    25    37    1
    29    37    38    1
    30    38    39    1
    31    25    26   ar
    32    26    27    1
    33    27    28   ar
    34    28    29   ar
    35    29    30   ar
    36    30    31    1
    37    30    32   ar
    38    32    33   ar
    39    26    21   ar
    40    33    27   ar
    41     7     2    1
    42    20    14   ar
    43    12     5    1
@<TRIPOS>MOLECULE
*****
 39 43 0 0 0
SMALL
GASTEIGER

@<TRIPOS>ATOM
      1 C         139.7803  141.4448  159.9128 C.3     1  UNL1        0.0993
      2 N         140.4767  140.4043  159.0866 N.3     1  UNL1       -0.2687
      3 C         141.8921  140.6240  158.6414 C.3     1  UNL1        0.0760
      4 C         142.5885  139.5836  157.8152 C.3     1  UNL1        0.0575
      5 C         141.8693  138.3235  157.4342 C.3     1  UNL1        0.1391
      6 C         140.4539  138.1039  157.8794 C.3     1  UNL1        0.0575
      7 C         139.7576  139.1443  158.7056 C.3     1  UNL1        0.0760
      8 C         141.2816  137.0208  156.9785 C.3     1  UNL1        0.0516
      9 C         142.3247  136.2953  156.1813 C.3     1  UNL1        0.1068
     10 C         143.5572  137.1496  156.1442 C.2     1  UNL1        0.3167
     11 O         144.8449  136.8101  155.4541 O.2     1  UNL1       -0.2501
     12 O         143.2757  138.4031  156.9185 O.3     1  UNL1       -0.4556
     13 C         142.1637  134.9514  155.5346 C.3     1  UNL1        0.0376
     14 C         142.7867  133.7388  156.1600 C.ar    1  UNL1       -0.0215
     15 C         143.9499  133.8908  157.0950 C.ar    1  UNL1       -0.0019
     16 C         144.5729  132.6781  157.7203 C.ar    1  UNL1        0.0293
     17 C         144.0329  131.3133  157.4108 C.ar    1  UNL1        0.1401
     18 F         144.6560  130.1006  158.0361 F       1  UNL1       -0.2042
     19 C         142.8698  131.1613  156.4758 C.ar    1  UNL1        0.0293
     20 C         142.2467  132.3740  155.8504 C.ar    1  UNL1       -0.0019
     21 C         140.9548  140.5178  163.5886 C.ar    1  UNL1        0.1411
     22 C         140.9159  140.5994  162.0913 C.ar    1  UNL1        0.0342
     23 C         139.8192  141.3631  161.4101 C.ar    1  UNL1       -0.0001
     24 C         138.7615  142.0452  162.2262 C.ar    1  UNL1        0.0342
     25 C         138.8004  141.9636  163.7234 C.ar    1  UNL1        0.1411
     26 C         139.8970  141.1999  164.4046 C.ar    1  UNL1        0.0679
     27 C         139.9360  141.1182  165.9019 C.ar    1  UNL1        0.0060
     28 C         139.2622  139.9796  166.6087 C.ar    1  UNL1        0.0025
     29 C         139.3012  139.8980  168.1060 C.ar    1  UNL1        0.0296
     30 C         140.0139  140.9550  168.8964 C.ar    1  UNL1        0.1401
     31 F         140.0528  140.8733  170.3937 F       1  UNL1       -0.2042
     32 C         140.6876  142.0936  168.1896 C.ar    1  UNL1        0.0296
     33 C         140.6487  142.1753  166.6924 C.ar    1  UNL1        0.0025
     34 O         142.0514  139.7540  164.2699 O.3     1  UNL1       -0.4754
     35 C         140.7236  137.5210  164.2423 C.3     1  UNL1        0.0512
     36 C         142.0319  138.2541  164.2710 C.3     1  UNL1        0.2055
     37 O         137.7427  142.6457  164.5394 O.3     1  UNL1       -0.4754
     38 C         137.8122  144.1262  164.7707 C.3     1  UNL1        0.2055
     39 C         139.1314  144.8361  164.6944 C.3     1  UNL1        0.0512
@<TRIPOS>BOND
     1    35    36    1
     2    36    34    1
     3    34    21    1
     4    21    22   ar
     5    22    23   ar
     6    23     1    1
     7     1     2    1
     8     2     3    1
     9     3     4    1
    10     4     5    1
    11     5     6    1
    12     6     7    1
    13     5     8    1
    14     8     9    1
    15     9    13    1
    16    13    14    1
    17    14    15   ar
    18    15    16   ar
    19    16    17   ar
    20    17    18    1
    21    17    19   ar
    22    19    20   ar
    23     9    10    1
    24    10    11    2
    25    10    12    1
    26    23    24   ar
    27    24    25   ar
    28    25    37    1
    29    37    38    1
    30    38    39    1
    31    25    26   ar
    32    26    27    1
    33    27    28   ar
    34    28    29   ar
    35    29    30   ar
    36    30    31    1
    37    30    32   ar
    38    32    33   ar
    39    26    21   ar
    40    33    27   ar
    41     7     2    1
    42    20    14   ar
    43    12     5    1
@<TRIPOS>MOLECULE
*****
 39 43 0 0 0
SMALL
GASTEIGER

@<TRIPOS>ATOM
      1 C         142.4002  141.4643  161.0443 C.3     1  UNL1        0.0993
      2 N         141.9232  140.5110  159.9889 N.3     1  UNL1       -0.2687
      3 C         140.4687  140.4608  159.6258 C.3     1  UNL1        0.0760
      4 C         139.9917  139.5076  158.5705 C.3     1  UNL1        0.0575
      5 C         140.9692  138.6045  157.8783 C.3     1  UNL1        0.1391
      6 C         142.4236  138.6547  158.2415 C.3     1  UNL1        0.0575
      7 C         142.9006  139.6080  159.2968 C.3     1  UNL1        0.0760
      8 C         141.8247  137.6459  157.1043 C.3     1  UNL1        0.0516
      9 C         140.9371  136.8913  156.1593 C.3     1  UNL1        0.1068
     10 C         139.5330  137.3837  156.3493 C.2     1  UNL1        0.3167
     11 O         138.3218  136.9020  155.6072 O.2     1  UNL1       -0.2501
     12 O         139.5528  138.4425  157.4116 O.3     1  UNL1       -0.4556
     13 C         141.3765  135.8307  155.1939 C.3     1  UNL1        0.0376
     14 C         141.8837  134.5150  155.7050 C.ar    1  UNL1       -0.0215
     15 C         141.3017  133.2338  155.1854 C.ar    1  UNL1       -0.0019
     16 C         141.8090  131.9179  155.6965 C.ar    1  UNL1        0.0293
     17 C         142.8982  131.8832  156.7272 C.ar    1  UNL1        0.1401
     18 F         143.4054  130.5674  157.2383 F       1  UNL1       -0.2042
     19 C         143.4802  133.1644  157.2468 C.ar    1  UNL1        0.0293
     20 C         142.9730  134.4803  156.7357 C.ar    1  UNL1       -0.0019
     21 C         141.2755  142.0666  164.8023 C.ar    1  UNL1        0.1411
     22 C         141.5937  142.3247  163.3593 C.ar    1  UNL1        0.0342
     23 C         142.0821  141.2062  162.4873 C.ar    1  UNL1       -0.0001
     24 C         142.2523  139.8296  163.0583 C.ar    1  UNL1        0.0342
     25 C         141.9342  139.5715  164.5012 C.ar    1  UNL1        0.1411
     26 C         141.4458  140.6900  165.3732 C.ar    1  UNL1        0.0679
     27 C         141.1276  140.4320  166.8162 C.ar    1  UNL1        0.0060
     28 C         139.7005  140.2909  167.2559 C.ar    1  UNL1        0.0025
     29 C         139.3824  140.0328  168.6990 C.ar    1  UNL1        0.0296
     30 C         140.4913  139.9158  169.7021 C.ar    1  UNL1        0.1401
     31 F         140.1732  139.6577  171.1451 F       1  UNL1       -0.2042
     32 C         141.9185  140.0568  169.2624 C.ar    1  UNL1        0.0296
     33 C         142.2366  140.3149  167.8194 C.ar    1  UNL1        0.0025
     34 O         140.7871  143.1851  165.6743 O.3     1  UNL1       -0.4754
     35 C         138.9651  144.9665  165.1673 C.3     1  UNL1        0.0512
     36 C         139.3439  143.5922  165.6339 C.3     1  UNL1        0.2055
     37 O         142.1044  138.1950  165.0721 O.3     1  UNL1       -0.4754
     38 C         141.1145  137.1178  164.7406 C.3     1  UNL1        0.2055
     39 C         139.6445  137.4145  164.7723 C.3     1  UNL1        0.0512
@<TRIPOS>BOND
     1    35    36    1
     2    36    34    1
     3    34    21    1
     4    21    22   ar
     5    22    23   ar
     6    23     1    1
     7     1     2    1
     8     2     3    1
     9     3     4    1
    10     4     5    1
    11     5     6    1
    12     6     7    1
    13     5     8    1
    14     8     9    1
    15     9    13    1
    16    13    14    1
    17    14    15   ar
    18    15    16   ar
    19    16    17   ar
    20    17    18    1
    21    17    19   ar
    22    19    20   ar
    23     9    10    1
    24    10    11    2
    25    10    12    1
    26    23    24   ar
    27    24    25   ar
    28    25    37    1
    29    37    38    1
    30    38    39    1
    31    25    26   ar
    32    26    27    1
    33    27    28   ar
    34    28    29   ar
    35    29    30   ar
    36    30    31    1
    37    30    32   ar
    38    32    33   ar
    39    26    21   ar
    40    33    27   ar
    41     7     2    1
    42    20    14   ar
    43    12     5    1
@<TRIPOS>MOLECULE
*****
 39 43 0 0 0
SMALL
GASTEIGER

@<TRIPOS>ATOM
      1 C         139.6337  141.4908  160.1958 C.3     1  UNL1        0.0993
      2 N         140.3544  140.5085  159.3206 N.3     1  UNL1       -0.2687
      3 C         141.7774  140.7637  158.9206 C.3     1  UNL1        0.0760
      4 C         142.4980  139.7814  158.0455 C.3     1  UNL1        0.0575
      5 C         141.7957  138.5441  157.5703 C.3     1  UNL1        0.1391
      6 C         140.3727  138.2890  157.9703 C.3     1  UNL1        0.0575
      7 C         139.6521  139.2712  158.8455 C.3     1  UNL1        0.0760
      8 C         141.2266  137.2697  157.0208 C.3     1  UNL1        0.0516
      9 C         142.2912  136.6018  156.2019 C.3     1  UNL1        0.1068
     10 C         143.5183  137.4635  156.2453 C.2     1  UNL1        0.3167
     11 O         144.8225  137.1753  155.5628 O.2     1  UNL1       -0.2501
     12 O         143.2121  138.6639  157.0910 O.3     1  UNL1       -0.4556
     13 C         142.1529  135.3007  155.4683 C.3     1  UNL1        0.0376
     14 C         142.7009  134.0398  156.0680 C.ar    1  UNL1       -0.0215
     15 C         142.0670  132.7189  155.7459 C.ar    1  UNL1       -0.0019
     16 C         142.6150  131.4579  156.3456 C.ar    1  UNL1        0.0293
     17 C         143.7969  131.5177  157.2673 C.ar    1  UNL1        0.1401
     18 F         144.3449  130.2567  157.8670 F       1  UNL1       -0.2042
     19 C         144.4308  132.8386  157.5894 C.ar    1  UNL1        0.0293
     20 C         143.8828  134.0996  156.9897 C.ar    1  UNL1       -0.0019
     21 C         140.7387  143.2250  163.5901 C.ar    1  UNL1        0.1411
     22 C         140.3197  143.0455  162.1610 C.ar    1  UNL1        0.0342
     23 C         140.0527  141.6703  161.6248 C.ar    1  UNL1       -0.0001
     24 C         140.2047  140.4746  162.5177 C.ar    1  UNL1        0.0342
     25 C         140.6237  140.6541  163.9468 C.ar    1  UNL1        0.1411
     26 C         140.8907  142.0293  164.4830 C.ar    1  UNL1        0.0679
     27 C         141.3097  142.2088  165.9120 C.ar    1  UNL1        0.0060
     28 C         142.7533  142.0670  166.2938 C.ar    1  UNL1        0.0025
     29 C         143.1723  142.2466  167.7229 C.ar    1  UNL1        0.0296
     30 C         142.1477  142.5679  168.7701 C.ar    1  UNL1        0.1401
     31 F         142.5666  142.7474  170.1992 F       1  UNL1       -0.2042
     32 C         140.7040  142.7097  168.3883 C.ar    1  UNL1        0.0296
     33 C         140.2850  142.5302  166.9593 C.ar    1  UNL1        0.0025
     34 O         141.0057  144.6002  164.1263 O.3     1  UNL1       -0.4754
     35 C         143.5498  144.5655  163.6003 C.3     1  UNL1        0.0512
     36 C         142.2632  145.3232  163.7440 C.3     1  UNL1        0.2055
     37 O         140.7757  139.4584  164.8396 O.3     1  UNL1       -0.4754
     38 C         139.5718  138.8640  165.5086 C.3     1  UNL1        0.2055
     39 C         138.2996  139.6531  165.6019 C.3     1  UNL1        0.0512
@<TRIPOS>BOND
     1    35    36    1
     2    36    34    1
     3    34    21    1
     4    21    22   ar
     5    22    23   ar
     6    23     1    1
     7     1     2    1
     8     2     3    1
     9     3     4    1
    10     4     5    1
    11     5     6    1
    12     6     7    1
    13     5     8    1
    14     8     9    1
    15     9    13    1
    16    13    14    1
    17    14    15   ar
    18    15    16   ar
    19    16    17   ar
    20    17    18    1
    21    17    19   ar
    22    19    20   ar
    23     9    10    1
    24    10    11    2
    25    10    12    1
    26    23    24   ar
    27    24    25   ar
    28    25    37    1
    29    37    38    1
    30    38    39    1
    31    25    26   ar
    32    26    27    1
    33    27    28   ar
    34    28    29   ar
    35    29    30   ar
    36    30    31    1
    37    30    32   ar
    38    32    33   ar
    39    26    21   ar
    40    33    27   ar
    41     7     2    1
    42    20    14   ar
    43    12     5    1
@<TRIPOS>MOLECULE
*****
 39 43 0 0 0
SMALL
GASTEIGER

@<TRIPOS>ATOM
      1 C         139.2370  141.2686  160.5394 C.3     1  UNL1        0.0993
      2 N         140.0312  140.4050  159.6047 N.3     1  UNL1       -0.2687
      3 C         141.4599  140.7456  159.3003 C.3     1  UNL1        0.0760
      4 C         142.2540  139.8820  158.3657 C.3     1  UNL1        0.0575
      5 C         141.6194  138.6778  157.7355 C.3     1  UNL1        0.1391
      6 C         140.1907  138.3372  158.0399 C.3     1  UNL1        0.0575
      7 C         139.3966  139.2007  158.9745 C.3     1  UNL1        0.0760
      8 C         141.1225  137.4486  157.0340 C.3     1  UNL1        0.0516
      9 C         142.2459  136.9029  156.2031 C.3     1  UNL1        0.1068
     10 C         143.4372  137.7948  156.3912 C.2     1  UNL1        0.3167
     11 O         144.7798  137.6204  155.7457 O.2     1  UNL1       -0.2501
     12 O         143.0500  138.8917  157.3382 O.3     1  UNL1       -0.4556
     13 C         142.1882  135.6800  155.3365 C.3     1  UNL1        0.0376
     14 C         142.5809  134.3449  155.8961 C.ar    1  UNL1       -0.0215
     15 C         143.7122  134.2459  156.8762 C.ar    1  UNL1       -0.0019
     16 C         144.1049  132.9107  157.4359 C.ar    1  UNL1        0.0293
     17 C         143.3663  131.6747  157.0155 C.ar    1  UNL1        0.1401
     18 F         143.7591  130.3395  157.5752 F       1  UNL1       -0.2042
     19 C         142.2350  131.7737  156.0354 C.ar    1  UNL1        0.0293
     20 C         141.8423  133.1088  155.4757 C.ar    1  UNL1       -0.0019
     21 C         140.3479  140.5760  164.2859 C.ar    1  UNL1        0.1411
     22 C         139.8639  140.3442  162.8851 C.ar    1  UNL1        0.0342
     23 C         139.7209  141.5003  161.9401 C.ar    1  UNL1       -0.0001
     24 C         140.0617  142.8882  162.3959 C.ar    1  UNL1        0.0342
     25 C         140.5456  143.1199  163.7967 C.ar    1  UNL1        0.1411
     26 C         140.6887  141.9638  164.7417 C.ar    1  UNL1        0.0679
     27 C         141.1726  142.1956  166.1424 C.ar    1  UNL1        0.0060
     28 C         140.2020  142.5912  167.2154 C.ar    1  UNL1        0.0025
     29 C         140.6859  142.8229  168.6162 C.ar    1  UNL1        0.0296
     30 C         142.1405  142.6590  168.9439 C.ar    1  UNL1        0.1401
     31 F         142.6244  142.8908  170.3446 F       1  UNL1       -0.2042
     32 C         143.1111  142.2634  167.8709 C.ar    1  UNL1        0.0296
     33 C         142.6272  142.0316  166.4702 C.ar    1  UNL1        0.0025
     34 O         140.4909  139.4199  165.2309 O.3     1  UNL1       -0.4754
     35 C         138.2536  139.0424  166.4966 C.3     1  UNL1        0.0512
     36 C         139.3053  138.5560  165.5440 C.3     1  UNL1        0.2055
     37 O         140.8865  144.5077  164.2524 O.3     1  UNL1       -0.4754
     38 C         142.0529  145.2308  163.6468 C.3     1  UNL1        0.2055
     39 C         143.4526  144.8393  164.0175 C.3     1  UNL1        0.0512
@<TRIPOS>BOND
     1    35    36    1
     2    36    34    1
     3    34    21    1
     4    21    22   ar
     5    22    23   ar
     6    23     1    1
     7     1     2    1
     8     2     3    1
     9     3     4    1
    10     4     5    1
    11     5     6    1
    12     6     7    1
    13     5     8    1
    14     8     9    1
    15     9    13    1
    16    13    14    1
    17    14    15   ar
    18    15    16   ar
    19    16    17   ar
    20    17    18    1
    21    17    19   ar
    22    19    20   ar
    23     9    10    1
    24    10    11    2
    25    10    12    1
    26    23    24   ar
    27    24    25   ar
    28    25    37    1
    29    37    38    1
    30    38    39    1
    31    25    26   ar
    32    26    27    1
    33    27    28   ar
    34    28    29   ar
    35    29    30   ar
    36    30    31    1
    37    30    32   ar
    38    32    33   ar
    39    26    21   ar
    40    33    27   ar
    41     7     2    1
    42    20    14   ar
    43    12     5    1
@<TRIPOS>MOLECULE
*****
 39 43 0 0 0
SMALL
GASTEIGER

@<TRIPOS>ATOM
      1 C         140.4857  141.5447  160.7528 C.3     1  UNL1        0.0993
      2 N         141.0221  140.5529  159.7634 N.3     1  UNL1       -0.2687
      3 C         142.4289  140.6824  159.2592 C.3     1  UNL1        0.0760
      4 C         142.9652  139.6907  158.2699 C.3     1  UNL1        0.0575
      5 C         142.0948  138.5695  157.7848 C.3     1  UNL1        0.1391
      6 C         140.6881  138.4400  158.2891 C.3     1  UNL1        0.0575
      7 C         140.1518  139.4317  159.2784 C.3     1  UNL1        0.0760
      8 C         141.3465  137.4023  157.2123 C.3     1  UNL1        0.0516
      9 C         142.2629  136.6822  156.2679 C.3     1  UNL1        0.1068
     10 C         143.5776  137.4044  156.2568 C.2     1  UNL1        0.3167
     11 O         144.7843  137.0265  155.4500 O.2     1  UNL1       -0.2501
     12 O         143.4738  138.5707  157.1943 O.3     1  UNL1       -0.4556
     13 C         141.9241  135.4555  155.4740 C.3     1  UNL1        0.0376
     14 C         142.7264  134.2009  155.6533 C.ar    1  UNL1       -0.0215
     15 C         143.4767  133.9666  156.9309 C.ar    1  UNL1       -0.0019
     16 C         144.2790  132.7119  157.1102 C.ar    1  UNL1        0.0293
     17 C         144.3310  131.6916  156.0119 C.ar    1  UNL1        0.1401
     18 F         145.1334  130.4369  156.1912 F       1  UNL1       -0.2042
     19 C         143.5807  131.9259  154.7343 C.ar    1  UNL1        0.0293
     20 C         142.7784  133.1806  154.5550 C.ar    1  UNL1       -0.0019
     21 C         142.5536  141.5286  164.1401 C.ar    1  UNL1        0.1411
     22 C         142.2192  141.6656  162.6842 C.ar    1  UNL1        0.0342
     23 C         140.8202  141.4077  162.2086 C.ar    1  UNL1       -0.0001
     24 C         139.7555  141.0129  163.1888 C.ar    1  UNL1        0.0342
     25 C         140.0900  140.8759  164.6446 C.ar    1  UNL1        0.1411
     26 C         141.4890  141.1337  165.1202 C.ar    1  UNL1        0.0679
     27 C         141.8235  140.9967  166.5760 C.ar    1  UNL1        0.0060
     28 C         142.2496  139.6678  167.1258 C.ar    1  UNL1        0.0025
     29 C         142.5840  139.5309  168.5817 C.ar    1  UNL1        0.0296
     30 C         142.4924  140.7228  169.4876 C.ar    1  UNL1        0.1401
     31 F         142.8268  140.5859  170.9434 F       1  UNL1       -0.2042
     32 C         142.0663  142.0518  168.9378 C.ar    1  UNL1        0.0296
     33 C         141.7318  142.1888  167.4820 C.ar    1  UNL1        0.0025
     34 O         143.9526  141.7864  164.6157 O.3     1  UNL1       -0.4754
     35 C         144.9164  139.3916  164.3222 C.3     1  UNL1        0.0512
     36 C         145.0684  140.8781  164.1913 C.3     1  UNL1        0.2055
     37 O         139.0254  140.4811  165.6247 O.3     1  UNL1       -0.4754
     38 C         138.4580  139.0927  165.5970 C.3     1  UNL1        0.2055
     39 C         139.3060  137.9450  165.1349 C.3     1  UNL1        0.0512
@<TRIPOS>BOND
     1    35    36    1
     2    36    34    1
     3    34    21    1
     4    21    22   ar
     5    22    23   ar
     6    23     1    1
     7     1     2    1
     8     2     3    1
     9     3     4    1
    10     4     5    1
    11     5     6    1
    12     6     7    1
    13     5     8    1
    14     8     9    1
    15     9    13    1
    16    13    14    1
    17    14    15   ar
    18    15    16   ar
    19    16    17   ar
    20    17    18    1
    21    17    19   ar
    22    19    20   ar
    23     9    10    1
    24    10    11    2
    25    10    12    1
    26    23    24   ar
    27    24    25   ar
    28    25    37    1
    29    37    38    1
    30    38    39    1
    31    25    26   ar
    32    26    27    1
    33    27    28   ar
    34    28    29   ar
    35    29    30   ar
    36    30    31    1
    37    30    32   ar
    38    32    33   ar
    39    26    21   ar
    40    33    27   ar
    41     7     2    1
    42    20    14   ar
    43    12     5    1
@<TRIPOS>MOLECULE
*****
 39 43 0 0 0
SMALL
GASTEIGER

@<TRIPOS>ATOM
      1 C         141.5341  139.6437  161.1889 C.3     1  UNL1        0.0993
      2 N         140.8679  139.5234  162.5275 N.3     1  UNL1       -0.2687
      3 C         139.6233  138.6993  162.6746 C.3     1  UNL1        0.0760
      4 C         138.9573  138.5791  164.0132 C.3     1  UNL1        0.0575
      5 C         139.5358  139.2830  165.2047 C.3     1  UNL1        0.1391
      6 C         140.7805  140.1072  165.0576 C.3     1  UNL1        0.0575
      7 C         141.4465  140.2274  163.7191 C.3     1  UNL1        0.0760
      8 C         139.9959  139.9261  166.4794 C.3     1  UNL1        0.0516
      9 C         139.0371  139.5392  167.5662 C.3     1  UNL1        0.1068
     10 C         137.9844  138.6569  166.9631 C.2     1  UNL1        0.3167
     11 O         136.8269  138.0411  167.6916 O.2     1  UNL1       -0.2501
     12 O         138.2926  138.4986  165.5037 O.3     1  UNL1       -0.4556
     13 C         139.1169  139.9605  169.0036 C.3     1  UNL1        0.0376
     14 C         140.2303  140.8548  169.4623 C.ar    1  UNL1       -0.0215
     15 C         140.0620  142.3447  169.4183 C.ar    1  UNL1       -0.0019
     16 C         141.1755  143.2391  169.8770 C.ar    1  UNL1        0.0293
     17 C         142.4572  142.6436  170.3796 C.ar    1  UNL1        0.1401
     18 F         143.5706  143.5379  170.8383 F       1  UNL1       -0.2042
     19 C         142.6254  141.1536  170.4236 C.ar    1  UNL1        0.0293
     20 C         141.5120  140.2593  169.9649 C.ar    1  UNL1       -0.0019
     21 C         139.9485  143.0121  159.8143 C.ar    1  UNL1        0.1411
     22 C         140.3479  141.9141  160.7549 C.ar    1  UNL1        0.0342
     23 C         141.1346  140.7417  160.2483 C.ar    1  UNL1       -0.0001
     24 C         141.5219  140.6674  158.8010 C.ar    1  UNL1        0.0342
     25 C         141.1225  141.7655  157.8605 C.ar    1  UNL1        0.1411
     26 C         140.3358  142.9378  158.3671 C.ar    1  UNL1        0.0679
     27 C         139.9364  144.0359  157.4265 C.ar    1  UNL1        0.0060
     28 C         140.6401  145.3596  157.4769 C.ar    1  UNL1        0.0025
     29 C         140.2406  146.4576  156.5362 C.ar    1  UNL1        0.0296
     30 C         139.1374  146.2320  155.5453 C.ar    1  UNL1        0.1401
     31 F         138.7380  147.3300  154.6048 F       1  UNL1       -0.2042
     32 C         138.4337  144.9083  155.4950 C.ar    1  UNL1        0.0296
     33 C         138.8331  143.8103  156.4355 C.ar    1  UNL1        0.0025
     34 O         139.1618  144.1845  160.3209 O.3     1  UNL1       -0.4754
     35 C         140.1266  145.9151  162.0015 C.3     1  UNL1        0.0512
     36 C         139.3496  144.6608  161.7309 C.3     1  UNL1        0.2055
     37 O         141.5098  141.6912  156.4133 O.3     1  UNL1       -0.4754
     38 C         142.7671  142.3572  155.9381 C.3     1  UNL1        0.2055
     39 C         142.6929  143.4752  154.9409 C.3     1  UNL1        0.0512
@<TRIPOS>BOND
     1    35    36    1
     2    36    34    1
     3    34    21    1
     4    21    22   ar
     5    22    23   ar
     6    23     1    1
     7     1     2    1
     8     2     3    1
     9     3     4    1
    10     4     5    1
    11     5     6    1
    12     6     7    1
    13     5     8    1
    14     8     9    1
    15     9    13    1
    16    13    14    1
    17    14    15   ar
    18    15    16   ar
    19    16    17   ar
    20    17    18    1
    21    17    19   ar
    22    19    20   ar
    23     9    10    1
    24    10    11    2
    25    10    12    1
    26    23    24   ar
    27    24    25   ar
    28    25    37    1
    29    37    38    1
    30    38    39    1
    31    25    26   ar
    32    26    27    1
    33    27    28   ar
    34    28    29   ar
    35    29    30   ar
    36    30    31    1
    37    30    32   ar
    38    32    33   ar
    39    26    21   ar
    40    33    27   ar
    41     7     2    1
    42    20    14   ar
    43    12     5    1
@<TRIPOS>MOLECULE
*****
 39 43 0 0 0
SMALL
GASTEIGER

@<TRIPOS>ATOM
      1 C         138.9690  139.2674  160.4918 C.3     1  UNL1        0.0993
      2 N         138.9403  140.3874  159.4944 N.3     1  UNL1       -0.2687
      3 C         137.7094  140.6274  158.6713 C.3     1  UNL1        0.0760
      4 C         137.6808  141.7473  157.6740 C.3     1  UNL1        0.0575
      5 C         138.8829  142.6274  157.4997 C.3     1  UNL1        0.1391
      6 C         140.1137  142.3875  158.3228 C.3     1  UNL1        0.0575
      7 C         140.1424  141.2675  159.3201 C.3     1  UNL1        0.0760
      8 C         140.0024  143.5847  157.2165 C.3     1  UNL1        0.0516
      9 C         139.5410  144.5358  156.1521 C.3     1  UNL1        0.1068
     10 C         138.1363  144.1662  155.7775 C.2     1  UNL1        0.3167
     11 O         137.2875  144.8550  154.7505 O.2     1  UNL1       -0.2501
     12 O         137.7296  142.9868  156.6104 O.3     1  UNL1       -0.4556
     13 C         140.3434  145.6591  155.5654 C.3     1  UNL1        0.0376
     14 C         139.7982  147.0564  155.5776 C.ar    1  UNL1       -0.0215
     15 C         140.0273  147.9611  154.4032 C.ar    1  UNL1       -0.0019
     16 C         139.4820  149.3585  154.4154 C.ar    1  UNL1        0.0293
     17 C         138.7078  149.8511  155.6020 C.ar    1  UNL1        0.1401
     18 F         138.1626  151.2485  155.6142 F       1  UNL1       -0.2042
     19 C         138.4788  148.9464  156.7764 C.ar    1  UNL1        0.0293
     20 C         139.0240  147.5490  156.7641 C.ar    1  UNL1       -0.0019
     21 C         140.2247  139.0526  164.2504 C.ar    1  UNL1        0.1411
     22 C         140.0670  138.7519  162.7893 C.ar    1  UNL1        0.0342
     23 C         139.1267  139.5681  161.9529 C.ar    1  UNL1       -0.0001
     24 C         138.3442  140.6850  162.5775 C.ar    1  UNL1        0.0342
     25 C         138.5019  140.9857  164.0385 C.ar    1  UNL1        0.1411
     26 C         139.4422  140.1695  164.8750 C.ar    1  UNL1        0.0679
     27 C         139.5999  140.4702  166.3360 C.ar    1  UNL1        0.0060
     28 C         140.4189  141.6476  166.7753 C.ar    1  UNL1        0.0025
     29 C         140.5766  141.9482  168.2364 C.ar    1  UNL1        0.0296
     30 C         139.9154  141.0715  169.2582 C.ar    1  UNL1        0.1401
     31 F         140.0731  141.3722  170.7192 F       1  UNL1       -0.2042
     32 C         139.0964  139.8941  168.8189 C.ar    1  UNL1        0.0296
     33 C         138.9387  139.5934  167.3579 C.ar    1  UNL1        0.0025
     34 O         141.1650  138.2364  165.0869 O.3     1  UNL1       -0.4754
     35 C         142.9803  138.8408  166.8446 C.3     1  UNL1        0.0512
     36 C         142.5290  138.7667  165.4160 C.3     1  UNL1        0.2055
     37 O         137.7194  142.1026  164.6631 O.3     1  UNL1       -0.4754
     38 C         137.8926  143.5080  164.1681 C.3     1  UNL1        0.2055
     39 C         138.9542  144.3864  164.7608 C.3     1  UNL1        0.0512
@<TRIPOS>BOND
     1    35    36    1
     2    36    34    1
     3    34    21    1
     4    21    22   ar
     5    22    23   ar
     6    23     1    1
     7     1     2    1
     8     2     3    1
     9     3     4    1
    10     4     5    1
    11     5     6    1
    12     6     7    1
    13     5     8    1
    14     8     9    1
    15     9    13    1
    16    13    14    1
    17    14    15   ar
    18    15    16   ar
    19    16    17   ar
    20    17    18    1
    21    17    19   ar
    22    19    20   ar
    23     9    10    1
    24    10    11    2
    25    10    12    1
    26    23    24   ar
    27    24    25   ar
    28    25    37    1
    29    37    38    1
    30    38    39    1
    31    25    26   ar
    32    26    27    1
    33    27    28   ar
    34    28    29   ar
    35    29    30   ar
    36    30    31    1
    37    30    32   ar
    38    32    33   ar
    39    26    21   ar
    40    33    27   ar
    41     7     2    1
    42    20    14   ar
    43    12     5    1
