@<TRIPOS>MOLECULE
*****
 25 28 0 0 0
SMALL
GASTEIGER

@<TRIPOS>ATOM
      1 C         141.4640  138.1649  164.9249 C.3     1  UNL1        0.1676
      2 C         140.2054  138.8381  165.3863 C.3     1  UNL1        0.0450
      3 C         140.2129  139.6659  166.6372 C.3     1  UNL1        0.0197
      4 C         141.4789  139.8205  167.4267 C.3     1  UNL1        0.0579
      5 C         142.7375  139.1473  166.9653 C.3     1  UNL1        0.0197
      6 C         142.7300  138.3195  165.7144 C.3     1  UNL1        0.0450
      7 N         141.4864  140.6483  168.6776 N.3     1  UNL1       -0.2698
      8 C         142.0818  140.0963  169.9388 C.3     1  UNL1        0.1046
      9 C         142.0892  140.9241  171.1896 C.3     1  UNL1        0.1594
     10 O         141.5012  142.3040  171.1792 O.3     1  UNL1       -0.3533
     11 C         140.9058  142.8561  169.9180 C.3     1  UNL1        0.1313
     12 C         140.3178  144.2360  169.9077 C.3     1  UNL1        0.0335
     13 C         140.8984  142.0283  168.6672 C.3     1  UNL1        0.1020
     14 O         141.4565  137.3371  163.6741 O.3     1  UNL1       -0.4639
     15 C         138.6133  137.8659  162.2824 C.3     1  UNL1        0.0329
     16 C         139.5604  138.3489  161.2242 C.ar    1  UNL1        0.0047
     17 C         139.1765  138.9168  159.8901 C.ar    1  UNL1        0.0965
     18 N         140.4365  139.2677  159.1558 N.ar    1  UNL1       -0.2271
     19 C         141.5992  138.9166  160.0361 C.ar    1  UNL1        0.1459
     20 N         143.0809  139.0406  159.8388 N.ar    1  UNL1       -0.3213
     21 C         144.0212  138.5968  160.9199 C.ar    1  UNL1        0.1791
     22 N         143.4797  138.0289  162.1983 N.ar    1  UNL1       -0.1912
     23 C         141.9980  137.9049  162.3956 C.ar    1  UNL1        0.2287
     24 C         141.0577  138.3488  161.3145 C.ar    1  UNL1        0.0846
     25 H         143.4363  139.4133  158.9997 H       1  UNL1        0.1689
@<TRIPOS>BOND
     1    15    16    1
     2    16    17   ar
     3    17    18   ar
     4    18    19   ar
     5    19    20   ar
     6    20    21   ar
     7    21    22   ar
     8    22    23   ar
     9    23    14    1
    10     1    14    1
    11     1     2    1
    12     2     3    1
    13     3     4    1
    14     4     7    1
    15     7     8    1
    16     8     9    1
    17     9    10    1
    18    10    11    1
    19    11    12    1
    20    11    13    1
    21     4     5    1
    22     5     6    1
    23    23    24   ar
    24    24    16   ar
    25    24    19    1
    26     6     1    1
    27    13     7    1
    28    20    25    1
@<TRIPOS>MOLECULE
*****
 25 28 0 0 0
SMALL
GASTEIGER

@<TRIPOS>ATOM
      1 C         142.2791  141.8765  165.8289 C.3     1  UNL1        0.1676
      2 C         141.1951  142.8936  166.0303 C.3     1  UNL1        0.0450
      3 C         140.6853  143.6874  164.8641 C.3     1  UNL1        0.0197
      4 C         141.2596  143.4641  163.4965 C.3     1  UNL1        0.0579
      5 C         142.3435  142.4471  163.2951 C.3     1  UNL1        0.0197
      6 C         142.8533  141.6533  164.4613 C.3     1  UNL1        0.0450
      7 N         140.7498  144.2579  162.3303 N.3     1  UNL1       -0.2698
      8 C         140.0948  145.5881  162.5573 C.3     1  UNL1        0.1046
      9 C         139.5851  146.3819  161.3911 C.3     1  UNL1        0.1594
     10 O         139.7303  145.8454  159.9979 O.3     1  UNL1       -0.3533
     11 C         140.3852  144.5153  159.7708 C.3     1  UNL1        0.1313
     12 C         140.5304  143.9788  158.3776 C.3     1  UNL1        0.0335
     13 C         140.8950  143.7215  160.9370 C.3     1  UNL1        0.1020
     14 O         142.7888  141.0828  166.9951 O.3     1  UNL1       -0.4639
     15 C         139.9157  139.7408  167.4893 C.3     1  UNL1        0.0329
     16 C         140.1481  140.4426  168.7944 C.ar    1  UNL1        0.0047
     17 C         139.2143  140.4534  169.9683 C.ar    1  UNL1        0.0965
     18 N         139.8443  141.2743  171.0542 N.ar    1  UNL1       -0.2271
     19 C         141.1674  141.7710  170.5515 C.ar    1  UNL1        0.1459
     20 N         142.2255  142.6248  171.1850 N.ar    1  UNL1       -0.3213
     21 C         143.4713  142.9647  170.4219 C.ar    1  UNL1        0.1791
     22 N         143.6591  142.4506  169.0253 N.ar    1  UNL1       -0.1912
     23 C         142.6010  141.5968  168.3918 C.ar    1  UNL1        0.2287
     24 C         141.3552  141.2570  169.1548 C.ar    1  UNL1        0.0846
     25 H         142.1022  142.9622  172.1016 H       1  UNL1        0.1689
@<TRIPOS>BOND
     1    15    16    1
     2    16    17   ar
     3    17    18   ar
     4    18    19   ar
     5    19    20   ar
     6    20    21   ar
     7    21    22   ar
     8    22    23   ar
     9    23    14    1
    10     1    14    1
    11     1     2    1
    12     2     3    1
    13     3     4    1
    14     4     7    1
    15     7     8    1
    16     8     9    1
    17     9    10    1
    18    10    11    1
    19    11    12    1
    20    11    13    1
    21     4     5    1
    22     5     6    1
    23    23    24   ar
    24    24    16   ar
    25    24    19    1
    26     6     1    1
    27    13     7    1
    28    20    25    1
@<TRIPOS>MOLECULE
*****
 25 28 0 0 0
SMALL
GASTEIGER

@<TRIPOS>ATOM
      1 C         139.0617  139.4445  165.0592 C.3     1  UNL1        0.1676
      2 C         138.8526  139.1020  166.5046 C.3     1  UNL1        0.0450
      3 C         139.4654  139.9567  167.5741 C.3     1  UNL1        0.0197
      4 C         140.2873  141.1539  167.1984 C.3     1  UNL1        0.0579
      5 C         140.4963  141.4965  165.7531 C.3     1  UNL1        0.0197
      6 C         139.8835  140.6417  164.6834 C.3     1  UNL1        0.0450
      7 N         140.9001  142.0086  168.2680 N.3     1  UNL1       -0.2698
      8 C         140.0697  143.0420  168.9698 C.3     1  UNL1        0.1046
      9 C         140.6825  143.8966  170.0393 C.3     1  UNL1        0.1594
     10 O         142.1257  143.7179  170.4071 O.3     1  UNL1       -0.3533
     11 C         142.9561  142.6845  169.7053 C.3     1  UNL1        0.1313
     12 C         144.3993  142.5058  170.0730 C.3     1  UNL1        0.0335
     13 C         142.3433  141.8299  168.6357 C.3     1  UNL1        0.1020
     14 O         138.4489  138.5898  163.9897 O.3     1  UNL1       -0.4639
     15 C         141.3726  137.2909  163.7361 C.3     1  UNL1        0.0329
     16 C         141.1556  137.8161  162.3479 C.ar    1  UNL1        0.0047
     17 C         142.1205  137.7104  161.2044 C.ar    1  UNL1        0.0965
     18 N         141.4968  138.3682  160.0093 N.ar    1  UNL1       -0.2271
     19 C         140.1464  138.8804  160.4142 C.ar    1  UNL1        0.1459
     20 N         139.0815  139.6135  159.6536 N.ar    1  UNL1       -0.3213
     21 C         137.8058  140.0053  160.3383 C.ar    1  UNL1        0.1791
     22 N         137.5949  139.6641  161.7837 N.ar    1  UNL1       -0.1912
     23 C         138.6597  138.9310  162.5443 C.ar    1  UNL1        0.2287
     24 C         139.9355  138.5392  161.8596 C.ar    1  UNL1        0.0846
     25 H         139.2199  139.8374  158.7049 H       1  UNL1        0.1689
@<TRIPOS>BOND
     1    15    16    1
     2    16    17   ar
     3    17    18   ar
     4    18    19   ar
     5    19    20   ar
     6    20    21   ar
     7    21    22   ar
     8    22    23   ar
     9    23    14    1
    10     1    14    1
    11     1     2    1
    12     2     3    1
    13     3     4    1
    14     4     7    1
    15     7     8    1
    16     8     9    1
    17     9    10    1
    18    10    11    1
    19    11    12    1
    20    11    13    1
    21     4     5    1
    22     5     6    1
    23    23    24   ar
    24    24    16   ar
    25    24    19    1
    26     6     1    1
    27    13     7    1
    28    20    25    1
@<TRIPOS>MOLECULE
*****
 25 28 0 0 0
SMALL
GASTEIGER

@<TRIPOS>ATOM
      1 C         143.5986  139.3306  164.9178 C.3     1  UNL1        0.1676
      2 C         143.6892  138.5819  166.2145 C.3     1  UNL1        0.0450
      3 C         142.9499  139.0795  167.4210 C.3     1  UNL1        0.0197
      4 C         142.1200  140.3258  167.3309 C.3     1  UNL1        0.0579
      5 C         142.0294  141.0745  166.0343 C.3     1  UNL1        0.0197
      6 C         142.7687  140.5769  164.8277 C.3     1  UNL1        0.0450
      7 N         141.3807  140.8234  168.5375 N.3     1  UNL1       -0.2698
      8 C         140.8592  139.8494  169.5521 C.3     1  UNL1        0.1046
      9 C         140.1199  140.3470  170.7586 C.3     1  UNL1        0.1594
     10 O         139.9021  141.8186  170.9506 O.3     1  UNL1       -0.3533
     11 C         140.4236  142.7927  169.9361 C.3     1  UNL1        0.1313
     12 C         140.2058  144.2643  170.1281 C.3     1  UNL1        0.0335
     13 C         141.1629  142.2950  168.7296 C.3     1  UNL1        0.1020
     14 O         144.3379  138.8330  163.7112 O.3     1  UNL1       -0.4639
     15 C         145.6538  141.7253  163.2607 C.3     1  UNL1        0.0329
     16 C         144.9079  141.5307  161.9740 C.ar    1  UNL1        0.0047
     17 C         144.8539  142.5004  160.8308 C.ar    1  UNL1        0.0965
     18 N         143.9977  141.9011  159.7548 N.ar    1  UNL1       -0.2271
     19 C         143.5225  140.5611  160.2329 C.ar    1  UNL1        0.1459
     20 N         142.6503  139.5199  159.5966 N.ar    1  UNL1       -0.3213
     21 C         142.3406  138.2496  160.3318 C.ar    1  UNL1        0.1791
     22 N         142.9031  138.0207  161.7034 N.ar    1  UNL1       -0.1912
     23 C         143.7754  139.0619  162.3397 C.ar    1  UNL1        0.2287
     24 C         144.0851  140.3322  161.6045 C.ar    1  UNL1        0.0846
     25 H         142.2811  139.6701  158.6964 H       1  UNL1        0.1689
@<TRIPOS>BOND
     1    15    16    1
     2    16    17   ar
     3    17    18   ar
     4    18    19   ar
     5    19    20   ar
     6    20    21   ar
     7    21    22   ar
     8    22    23   ar
     9    23    14    1
    10     1    14    1
    11     1     2    1
    12     2     3    1
    13     3     4    1
    14     4     7    1
    15     7     8    1
    16     8     9    1
    17     9    10    1
    18    10    11    1
    19    11    12    1
    20    11    13    1
    21     4     5    1
    22     5     6    1
    23    23    24   ar
    24    24    16   ar
    25    24    19    1
    26     6     1    1
    27    13     7    1
    28    20    25    1
@<TRIPOS>MOLECULE
*****
 25 28 0 0 0
SMALL
GASTEIGER

@<TRIPOS>ATOM
      1 C         143.4129  139.2555  164.7059 C.3     1  UNL1        0.1676
      2 C         143.0336  140.7051  164.7767 C.3     1  UNL1        0.0450
      3 C         142.6255  141.3104  166.0870 C.3     1  UNL1        0.0197
      4 C         142.5967  140.4662  167.3266 C.3     1  UNL1        0.0579
      5 C         142.9759  139.0167  167.2558 C.3     1  UNL1        0.0197
      6 C         143.3840  138.4113  165.9454 C.3     1  UNL1        0.0450
      7 N         142.1885  141.0716  168.6370 N.3     1  UNL1       -0.2698
      8 C         142.4925  140.3571  169.9203 C.3     1  UNL1        0.1046
      9 C         142.0844  140.9625  171.2306 C.3     1  UNL1        0.1594
     10 O         141.3723  142.2824  171.2575 O.3     1  UNL1       -0.3533
     11 C         141.0683  142.9969  169.9742 C.3     1  UNL1        0.1313
     12 C         140.3562  144.3168  170.0011 C.3     1  UNL1        0.0335
     13 C         141.4765  142.3915  168.6639 C.3     1  UNL1        0.1020
     14 O         143.8209  138.6502  163.3955 O.3     1  UNL1       -0.4639
     15 C         140.9489  137.2181  163.3785 C.3     1  UNL1        0.0329
     16 C         140.8922  138.0204  162.1124 C.ar    1  UNL1        0.0047
     17 C         139.7411  138.0721  161.1521 C.ar    1  UNL1        0.0965
     18 N         140.1142  138.9955  160.0305 N.ar    1  UNL1       -0.2271
     19 C         141.4960  139.5146  160.2976 C.ar    1  UNL1        0.1459
     20 N         142.3784  140.4581  159.5354 N.ar    1  UNL1       -0.3213
     21 C         143.7417  140.7990  160.0599 C.ar    1  UNL1        0.1791
     22 N         144.2226  140.1963  161.3466 N.ar    1  UNL1       -0.1912
     23 C         143.3401  139.2528  162.1088 C.ar    1  UNL1        0.2287
     24 C         141.9768  138.9119  161.5843 C.ar    1  UNL1        0.0846
     25 H         142.0629  140.8536  158.6909 H       1  UNL1        0.1689
@<TRIPOS>BOND
     1    15    16    1
     2    16    17   ar
     3    17    18   ar
     4    18    19   ar
     5    19    20   ar
     6    20    21   ar
     7    21    22   ar
     8    22    23   ar
     9    23    14    1
    10     1    14    1
    11     1     2    1
    12     2     3    1
    13     3     4    1
    14     4     7    1
    15     7     8    1
    16     8     9    1
    17     9    10    1
    18    10    11    1
    19    11    12    1
    20    11    13    1
    21     4     5    1
    22     5     6    1
    23    23    24   ar
    24    24    16   ar
    25    24    19    1
    26     6     1    1
    27    13     7    1
    28    20    25    1
@<TRIPOS>MOLECULE
*****
 25 28 0 0 0
SMALL
GASTEIGER

@<TRIPOS>ATOM
      1 C         141.8292  138.3416  164.9479 C.3     1  UNL1        0.1676
      2 C         142.9776  138.3551  165.9129 C.3     1  UNL1        0.0450
      3 C         142.8790  139.1436  167.1850 C.3     1  UNL1        0.0197
      4 C         141.6321  139.9187  167.4923 C.3     1  UNL1        0.0579
      5 C         140.4838  139.9053  166.5274 C.3     1  UNL1        0.0197
      6 C         140.5823  139.1167  165.2552 C.3     1  UNL1        0.0450
      7 N         141.5336  140.7073  168.7646 N.3     1  UNL1       -0.2698
      8 C         141.9885  140.1018  170.0593 C.3     1  UNL1        0.1046
      9 C         141.8900  140.8904  171.3315 C.3     1  UNL1        0.1594
     10 O         141.3365  142.2844  171.3089 O.3     1  UNL1       -0.3533
     11 C         140.8816  142.8898  170.0141 C.3     1  UNL1        0.1313
     12 C         140.3281  144.2837  169.9915 C.3     1  UNL1        0.0335
     13 C         140.9801  142.1012  168.7420 C.3     1  UNL1        0.1020
     14 O         141.9278  137.5531  163.6757 O.3     1  UNL1       -0.4639
     15 C         144.3411  139.4161  162.6730 C.3     1  UNL1        0.0329
     16 C         143.3240  139.6341  161.5923 C.ar    1  UNL1        0.0047
     17 C         143.4892  140.5173  160.3912 C.ar    1  UNL1        0.0965
     18 N         142.2304  140.4362  159.5796 N.ar    1  UNL1       -0.2271
     19 C         141.2872  139.5029  160.2790 C.ar    1  UNL1        0.1459
     20 N         139.9002  139.0403  159.9438 N.ar    1  UNL1       -0.3213
     21 C         139.1891  138.0821  160.8527 C.ar    1  UNL1        0.1791
     22 N         139.8650  137.5863  162.0966 N.ar    1  UNL1       -0.1912
     23 C         141.2519  138.0489  162.4318 C.ar    1  UNL1        0.2287
     24 C         141.9630  139.0071  161.5229 C.ar    1  UNL1        0.0846
     25 H         139.4566  139.3657  159.1274 H       1  UNL1        0.1689
@<TRIPOS>BOND
     1    15    16    1
     2    16    17   ar
     3    17    18   ar
     4    18    19   ar
     5    19    20   ar
     6    20    21   ar
     7    21    22   ar
     8    22    23   ar
     9    23    14    1
    10     1    14    1
    11     1     2    1
    12     2     3    1
    13     3     4    1
    14     4     7    1
    15     7     8    1
    16     8     9    1
    17     9    10    1
    18    10    11    1
    19    11    12    1
    20    11    13    1
    21     4     5    1
    22     5     6    1
    23    23    24   ar
    24    24    16   ar
    25    24    19    1
    26     6     1    1
    27    13     7    1
    28    20    25    1
@<TRIPOS>MOLECULE
*****
 25 28 0 0 0
SMALL
GASTEIGER

@<TRIPOS>ATOM
      1 C         142.5214  143.7648  164.5063 C.3     1  UNL1        0.1676
      2 C         143.5811  143.0529  165.2940 C.3     1  UNL1        0.0450
      3 C         143.1965  142.1846  166.4550 C.3     1  UNL1        0.0197
      4 C         141.7522  142.0283  166.8286 C.3     1  UNL1        0.0579
      5 C         140.6925  142.7402  166.0411 C.3     1  UNL1        0.0197
      6 C         141.0771  143.6085  164.8799 C.3     1  UNL1        0.0450
      7 N         141.3676  141.1600  167.9898 N.3     1  UNL1       -0.2698
      8 C         140.0095  141.2974  168.6116 C.3     1  UNL1        0.1046
      9 C         139.6250  140.4292  169.7727 C.3     1  UNL1        0.1594
     10 O         140.5985  139.4235  170.3120 O.3     1  UNL1       -0.3533
     11 C         141.9566  139.2861  169.6902 C.3     1  UNL1        0.1313
     12 C         142.9302  138.2804  170.2295 C.3     1  UNL1        0.0335
     13 C         142.3411  140.1543  168.5291 C.3     1  UNL1        0.1020
     14 O         142.9060  144.6330  163.3452 O.3     1  UNL1       -0.4639
     15 C         140.2492  145.8811  162.0477 C.3     1  UNL1        0.0329
     16 C         140.8109  145.1043  160.8940 C.ar    1  UNL1        0.0047
     17 C         140.2086  145.0009  159.5241 C.ar    1  UNL1        0.0965
     18 N         141.0990  144.1273  158.6911 N.ar    1  UNL1       -0.2271
     19 C         142.2515  143.6908  159.5461 C.ar    1  UNL1        0.1459
     20 N         143.4402  142.8214  159.2608 N.ar    1  UNL1       -0.3213
     21 C         144.4507  142.5560  160.3370 C.ar    1  UNL1        0.1791
     22 N         144.2727  143.1599  161.6985 N.ar    1  UNL1       -0.1912
     23 C         143.0841  144.0292  161.9838 C.ar    1  UNL1        0.2287
     24 C         142.0735  144.2946  160.9076 C.ar    1  UNL1        0.0846
     25 H         143.5570  142.4251  158.3672 H       1  UNL1        0.1689
@<TRIPOS>BOND
     1    15    16    1
     2    16    17   ar
     3    17    18   ar
     4    18    19   ar
     5    19    20   ar
     6    20    21   ar
     7    21    22   ar
     8    22    23   ar
     9    23    14    1
    10     1    14    1
    11     1     2    1
    12     2     3    1
    13     3     4    1
    14     4     7    1
    15     7     8    1
    16     8     9    1
    17     9    10    1
    18    10    11    1
    19    11    12    1
    20    11    13    1
    21     4     5    1
    22     5     6    1
    23    23    24   ar
    24    24    16   ar
    25    24    19    1
    26     6     1    1
    27    13     7    1
    28    20    25    1
@<TRIPOS>MOLECULE
*****
 25 28 0 0 0
SMALL
GASTEIGER

@<TRIPOS>ATOM
      1 C         141.0803  141.1599  165.7683 C.3     1  UNL1        0.1676
      2 C         140.5162  140.6382  164.4800 C.3     1  UNL1        0.0450
      3 C         140.2470  141.5794  163.3435 C.3     1  UNL1        0.0197
      4 C         140.5419  143.0423  163.4952 C.3     1  UNL1        0.0579
      5 C         141.1060  143.5640  164.7834 C.3     1  UNL1        0.0197
      6 C         141.3753  142.6228  165.9200 C.3     1  UNL1        0.0450
      7 N         140.2726  143.9835  162.3586 N.3     1  UNL1       -0.2698
      8 C         139.9081  145.4115  162.6377 C.3     1  UNL1        0.1046
      9 C         139.6388  146.3526  161.5011 C.3     1  UNL1        0.1594
     10 O         139.7342  145.8657  160.0856 O.3     1  UNL1       -0.3533
     11 C         140.0987  144.4377  159.8065 C.3     1  UNL1        0.1313
     12 C         140.1941  143.9509  158.3909 C.3     1  UNL1        0.0335
     13 C         140.3680  143.4966  160.9431 C.3     1  UNL1        0.1020
     14 O         141.3496  140.2187  166.9048 O.3     1  UNL1       -0.4639
     15 C         143.2639  141.8112  168.9294 C.3     1  UNL1        0.0329
     16 C         142.0695  141.5402  169.7954 C.ar    1  UNL1        0.0047
     17 C         141.9086  141.9506  171.2292 C.ar    1  UNL1        0.0965
     18 N         140.5659  141.4753  171.6995 N.ar    1  UNL1       -0.2271
     19 C         139.8970  140.7710  170.5565 C.ar    1  UNL1        0.1459
     20 N         138.5618  140.0984  170.4352 N.ar    1  UNL1       -0.3213
     21 C         138.1558  139.4659  169.1371 C.ar    1  UNL1        0.1791
     22 N         139.0851  139.5060  167.9603 N.ar    1  UNL1       -0.1912
     23 C         140.4203  140.1786  168.0816 C.ar    1  UNL1        0.2287
     24 C         140.8262  140.8111  169.3797 C.ar    1  UNL1        0.0846
     25 H         137.9519  140.0721  171.2075 H       1  UNL1        0.1689
@<TRIPOS>BOND
     1    15    16    1
     2    16    17   ar
     3    17    18   ar
     4    18    19   ar
     5    19    20   ar
     6    20    21   ar
     7    21    22   ar
     8    22    23   ar
     9    23    14    1
    10     1    14    1
    11     1     2    1
    12     2     3    1
    13     3     4    1
    14     4     7    1
    15     7     8    1
    16     8     9    1
    17     9    10    1
    18    10    11    1
    19    11    12    1
    20    11    13    1
    21     4     5    1
    22     5     6    1
    23    23    24   ar
    24    24    16   ar
    25    24    19    1
    26     6     1    1
    27    13     7    1
    28    20    25    1
@<TRIPOS>MOLECULE
*****
 25 28 0 0 0
SMALL
GASTEIGER

@<TRIPOS>ATOM
      1 C         139.2758  142.2504  164.2743 C.3     1  UNL1        0.1676
      2 C         139.9109  143.2963  165.1420 C.3     1  UNL1        0.0450
      3 C         140.3650  142.9463  166.5281 C.3     1  UNL1        0.0197
      4 C         140.1840  141.5505  167.0466 C.3     1  UNL1        0.0579
      5 C         139.5490  140.5046  166.1790 C.3     1  UNL1        0.0197
      6 C         139.0948  140.8545  164.7928 C.3     1  UNL1        0.0450
      7 N         140.6382  141.2005  168.4327 N.3     1  UNL1       -0.2698
      8 C         140.2463  142.0683  169.5918 C.3     1  UNL1        0.1046
      9 C         140.7004  141.7183  170.9779 C.3     1  UNL1        0.1594
     10 O         141.5465  140.5006  171.2049 O.3     1  UNL1       -0.3533
     11 C         141.9383  139.6329  170.0458 C.3     1  UNL1        0.1313
     12 C         142.7844  138.4153  170.2728 C.3     1  UNL1        0.0335
     13 C         141.4842  139.9829  168.6598 C.3     1  UNL1        0.1020
     14 O         138.8217  142.6004  162.8883 O.3     1  UNL1       -0.4639
     15 C         141.2116  140.7873  161.7477 C.3     1  UNL1        0.0329
     16 C         141.5451  142.1274  161.1620 C.ar    1  UNL1        0.0047
     17 C         142.7186  142.4370  160.2807 C.ar    1  UNL1        0.0965
     18 N         142.6623  143.8941  159.9288 N.ar    1  UNL1       -0.2271
     19 C         141.4540  144.4849  160.5927 C.ar    1  UNL1        0.1459
     20 N         140.8932  145.8761  160.6017 N.ar    1  UNL1       -0.3213
     21 C         139.6420  146.1754  161.3729 C.ar    1  UNL1        0.1791
     22 N         138.9514  145.0835  162.1351 N.ar    1  UNL1       -0.1912
     23 C         139.5122  143.6923  162.1261 C.ar    1  UNL1        0.2287
     24 C         140.7634  143.3930  161.3549 C.ar    1  UNL1        0.0846
     25 H         141.3464  146.5928  160.1015 H       1  UNL1        0.1689
@<TRIPOS>BOND
     1    15    16    1
     2    16    17   ar
     3    17    18   ar
     4    18    19   ar
     5    19    20   ar
     6    20    21   ar
     7    21    22   ar
     8    22    23   ar
     9    23    14    1
    10     1    14    1
    11     1     2    1
    12     2     3    1
    13     3     4    1
    14     4     7    1
    15     7     8    1
    16     8     9    1
    17     9    10    1
    18    10    11    1
    19    11    12    1
    20    11    13    1
    21     4     5    1
    22     5     6    1
    23    23    24   ar
    24    24    16   ar
    25    24    19    1
    26     6     1    1
    27    13     7    1
    28    20    25    1
