@<TRIPOS>MOLECULE
*****
 21 22 0 0 0
SMALL
GASTEIGER

@<TRIPOS>ATOM
      1 N         140.5083  138.6877  161.5842 N.3     1  UNL1       -0.2711
      2 C         139.3015  137.9245  162.0436 C.3     1  UNL1        0.0939
      3 C         138.8387  138.0384  163.4658 C.3     1  UNL1        0.1123
      4 N         139.5827  138.9154  164.4287 N.am    1  UNL1       -0.2612
      5 C         139.1199  139.0293  165.8510 C.2     1  UNL1        0.3072
      6 O         137.9131  138.2661  166.3104 O.2     1  UNL1       -0.2523
      7 N         139.8639  139.9063  166.8139 N.am    1  UNL1       -0.2640
      8 C         141.0708  140.6695  166.3545 C.3     1  UNL1        0.0949
      9 C         141.8149  141.5465  167.3174 C.3     1  UNL1        0.0216
     10 C         141.3521  141.6604  168.7397 C.3     1  UNL1        0.0034
     11 C         140.1452  140.8972  169.1991 C.3     1  UNL1        0.0216
     12 C         139.4011  140.0201  168.2362 C.3     1  UNL1        0.0949
     13 C         140.7895  139.6786  163.9693 C.3     1  UNL1        0.1123
     14 C         141.2523  139.5647  162.5471 C.3     1  UNL1        0.0939
     15 C         142.0962  142.5375  169.7026 C.3     1  UNL1        0.0001
     16 C         143.3154  141.6784  169.5430 C.3     1  UNL1        0.0000
     17 C         140.8770  143.3965  169.8622 C.3     1  UNL1        0.0000
     18 C         142.8402  143.4145  170.6655 C.3     1  UNL1        0.0000
     19 C         139.9844  138.7024  159.0396 C.3     1  UNL1        0.0173
     20 C         140.9711  138.5738  160.1619 C.3     1  UNL1        0.0577
     21 C         142.4206  138.3314  159.8620 C.3     1  UNL1        0.0173
@<TRIPOS>BOND
     1    19    20    1
     2    20    21    1
     3    20     1    1
     4     1     2    1
     5     2     3    1
     6     3     4    1
     7     4     5   am
     8     5     6    2
     9     5     7   am
    10     7     8    1
    11     8     9    1
    12     9    10    1
    13    10    15    1
    14    15    16    1
    15    15    17    1
    16    15    18    1
    17    10    11    1
    18    11    12    1
    19     4    13    1
    20    13    14    1
    21    14     1    1
    22    12     7    1
@<TRIPOS>MOLECULE
*****
 21 22 0 0 0
SMALL
GASTEIGER

@<TRIPOS>ATOM
      1 N         139.8802  144.4323  159.1493 N.3     1  UNL1       -0.2711
      2 C         140.3271  145.5170  160.0839 C.3     1  UNL1        0.0939
      3 C         140.3717  145.2626  161.5615 C.3     1  UNL1        0.1123
      4 N         139.9695  143.9235  162.1045 N.am    1  UNL1       -0.2612
      5 C         140.0141  143.6691  163.5821 C.2     1  UNL1        0.3072
      6 O         140.4611  144.7539  164.5167 O.2     1  UNL1       -0.2523
      7 N         139.6118  142.3300  164.1251 N.am    1  UNL1       -0.2640
      8 C         139.1649  141.2452  163.1905 C.3     1  UNL1        0.0949
      9 C         138.7626  139.9061  163.7335 C.3     1  UNL1        0.0216
     10 C         138.8073  139.6517  165.2111 C.3     1  UNL1        0.0034
     11 C         139.2542  140.7364  166.1457 C.3     1  UNL1        0.0216
     12 C         139.6565  142.0757  165.6027 C.3     1  UNL1        0.0949
     13 C         139.5225  142.8388  161.1699 C.3     1  UNL1        0.1123
     14 C         139.4779  143.0931  159.6923 C.3     1  UNL1        0.0939
     15 C         138.4050  138.3125  165.7541 C.3     1  UNL1        0.0001
     16 C         138.9151  137.6535  164.5069 C.3     1  UNL1        0.0000
     17 C         137.8948  138.9715  167.0012 C.3     1  UNL1        0.0000
     18 C         138.0027  136.9734  166.2971 C.3     1  UNL1        0.0000
     19 C         139.3632  143.6107  156.7394 C.3     1  UNL1        0.0173
     20 C         139.8355  144.6866  157.6717 C.3     1  UNL1        0.0577
     21 C         140.2631  146.0169  157.1265 C.3     1  UNL1        0.0173
@<TRIPOS>BOND
     1    19    20    1
     2    20    21    1
     3    20     1    1
     4     1     2    1
     5     2     3    1
     6     3     4    1
     7     4     5   am
     8     5     6    2
     9     5     7   am
    10     7     8    1
    11     8     9    1
    12     9    10    1
    13    10    15    1
    14    15    16    1
    15    15    17    1
    16    15    18    1
    17    10    11    1
    18    11    12    1
    19     4    13    1
    20    13    14    1
    21    14     1    1
    22    12     7    1
@<TRIPOS>MOLECULE
*****
 21 22 0 0 0
SMALL
GASTEIGER

@<TRIPOS>ATOM
      1 N         140.9154  143.8552  160.1671 N.3     1  UNL1       -0.2711
      2 C         142.4065  143.7024  160.1103 C.3     1  UNL1        0.0939
      3 C         143.1751  143.3762  161.3564 C.3     1  UNL1        0.1123
      4 N         142.4525  143.2026  162.6594 N.am    1  UNL1       -0.2612
      5 C         143.2211  142.8763  163.9055 C.2     1  UNL1        0.3072
      6 O         144.7121  142.7236  163.8487 O.2     1  UNL1       -0.2523
      7 N         142.4985  142.7028  165.2085 N.am    1  UNL1       -0.2640
      8 C         141.0073  142.8556  165.2654 C.3     1  UNL1        0.0949
      9 C         140.2848  142.6820  166.5683 C.3     1  UNL1        0.0216
     10 C         141.0533  142.3557  167.8145 C.3     1  UNL1        0.0034
     11 C         142.5444  142.2030  167.7577 C.3     1  UNL1        0.0216
     12 C         143.2670  142.3765  166.4547 C.3     1  UNL1        0.0949
     13 C         140.9614  143.3554  162.7162 C.3     1  UNL1        0.1123
     14 C         140.1929  143.6817  161.4701 C.3     1  UNL1        0.0939
     15 C         140.3307  142.1822  169.1175 C.3     1  UNL1        0.0001
     16 C         140.6462  143.6027  169.4817 C.3     1  UNL1        0.0000
     17 C         140.0152  140.7617  168.7533 C.3     1  UNL1        0.0000
     18 C         139.6081  142.0086  170.4204 C.3     1  UNL1        0.0000
     19 C         140.3373  145.5085  158.2482 C.3     1  UNL1        0.0173
     20 C         140.1469  144.1815  158.9209 C.3     1  UNL1        0.0577
     21 C         139.1879  143.1807  158.3476 C.3     1  UNL1        0.0173
@<TRIPOS>BOND
     1    19    20    1
     2    20    21    1
     3    20     1    1
     4     1     2    1
     5     2     3    1
     6     3     4    1
     7     4     5   am
     8     5     6    2
     9     5     7   am
    10     7     8    1
    11     8     9    1
    12     9    10    1
    13    10    15    1
    14    15    16    1
    15    15    17    1
    16    15    18    1
    17    10    11    1
    18    11    12    1
    19     4    13    1
    20    13    14    1
    21    14     1    1
    22    12     7    1
@<TRIPOS>MOLECULE
*****
 21 22 0 0 0
SMALL
GASTEIGER

@<TRIPOS>ATOM
      1 N         138.8153  140.7683  161.1422 N.3     1  UNL1       -0.2711
      2 C         138.0846  139.5281  161.5641 C.3     1  UNL1        0.0939
      3 C         138.0887  139.1086  163.0043 C.3     1  UNL1        0.1123
      4 N         138.8234  139.9292  164.0224 N.am    1  UNL1       -0.2612
      5 C         138.8274  139.5097  165.4626 C.2     1  UNL1        0.3072
      6 O         138.0967  138.2696  165.8845 O.2     1  UNL1       -0.2523
      7 N         139.5621  140.3303  166.4807 N.am    1  UNL1       -0.2640
      8 C         140.2928  141.5706  166.0588 C.3     1  UNL1        0.0949
      9 C         141.0275  142.3912  167.0770 C.3     1  UNL1        0.0216
     10 C         141.0316  141.9717  168.5171 C.3     1  UNL1        0.0034
     11 C         140.3009  140.7315  168.9391 C.3     1  UNL1        0.0216
     12 C         139.5661  139.9108  167.9209 C.3     1  UNL1        0.0949
     13 C         139.5540  141.1694  163.6005 C.3     1  UNL1        0.1123
     14 C         139.5500  141.5889  162.1603 C.3     1  UNL1        0.0939
     15 C         141.7663  142.7924  169.5353 C.3     1  UNL1        0.0001
     16 C         140.4900  143.4966  169.8887 C.3     1  UNL1        0.0000
     17 C         143.0427  142.0881  169.1819 C.3     1  UNL1        0.0000
     18 C         142.5011  143.6130  170.5534 C.3     1  UNL1        0.0000
     19 C         138.8263  140.1505  158.6186 C.3     1  UNL1        0.0173
     20 C         138.8112  141.1878  159.7020 C.3     1  UNL1        0.0577
     21 C         138.7922  142.6446  159.3453 C.3     1  UNL1        0.0173
@<TRIPOS>BOND
     1    19    20    1
     2    20    21    1
     3    20     1    1
     4     1     2    1
     5     2     3    1
     6     3     4    1
     7     4     5   am
     8     5     6    2
     9     5     7   am
    10     7     8    1
    11     8     9    1
    12     9    10    1
    13    10    15    1
    14    15    16    1
    15    15    17    1
    16    15    18    1
    17    10    11    1
    18    11    12    1
    19     4    13    1
    20    13    14    1
    21    14     1    1
    22    12     7    1
@<TRIPOS>MOLECULE
*****
 21 22 0 0 0
SMALL
GASTEIGER

@<TRIPOS>ATOM
      1 N         140.6614  141.9729  168.6216 N.3     1  UNL1       -0.2711
      2 C         139.7480  140.9079  169.1521 C.3     1  UNL1        0.0939
      3 C         139.1734  139.8810  168.2218 C.3     1  UNL1        0.1123
      4 N         139.5121  139.9191  166.7611 N.am    1  UNL1       -0.2612
      5 C         138.9375  138.8922  165.8309 C.2     1  UNL1        0.3072
      6 O         138.0241  137.8272  166.3613 O.2     1  UNL1       -0.2523
      7 N         139.2763  138.9304  164.3701 N.am    1  UNL1       -0.2640
      8 C         140.1898  139.9954  163.8396 C.3     1  UNL1        0.0949
      9 C         140.5285  140.0335  162.3789 C.3     1  UNL1        0.0216
     10 C         139.9539  139.0067  161.4486 C.3     1  UNL1        0.0034
     11 C         139.0405  137.9417  161.9791 C.3     1  UNL1        0.0216
     12 C         138.7017  137.9035  163.4399 C.3     1  UNL1        0.0949
     13 C         140.4255  140.9841  166.2306 C.3     1  UNL1        0.1123
     14 C         141.0001  142.0110  167.1609 C.3     1  UNL1        0.0939
     15 C         140.2928  139.0448  159.9879 C.3     1  UNL1        0.0001
     16 C         138.8773  139.4254  159.6694 C.3     1  UNL1        0.0000
     17 C         141.7083  138.6643  160.3063 C.3     1  UNL1        0.0000
     18 C         140.6316  139.0830  158.5272 C.3     1  UNL1        0.0000
     19 C         142.6450  142.8588  170.0464 C.3     1  UNL1        0.0173
     20 C         141.2360  142.9997  169.5518 C.3     1  UNL1        0.0577
     21 C         140.4015  144.1676  169.9875 C.3     1  UNL1        0.0173
@<TRIPOS>BOND
     1    19    20    1
     2    20    21    1
     3    20     1    1
     4     1     2    1
     5     2     3    1
     6     3     4    1
     7     4     5   am
     8     5     6    2
     9     5     7   am
    10     7     8    1
    11     8     9    1
    12     9    10    1
    13    10    15    1
    14    15    16    1
    15    15    17    1
    16    15    18    1
    17    10    11    1
    18    11    12    1
    19     4    13    1
    20    13    14    1
    21    14     1    1
    22    12     7    1
@<TRIPOS>MOLECULE
*****
 21 22 0 0 0
SMALL
GASTEIGER

@<TRIPOS>ATOM
      1 N         139.7306  143.0416  160.7353 N.3     1  UNL1       -0.2711
      2 C         139.1272  141.6986  160.4484 C.3     1  UNL1        0.0939
      3 C         138.8857  140.7303  161.5682 C.3     1  UNL1        0.1123
      4 N         139.2475  141.1049  162.9749 N.am    1  UNL1       -0.2612
      5 C         139.0059  140.1366  164.0947 C.2     1  UNL1        0.3072
      6 O         138.4025  138.7936  163.8078 O.2     1  UNL1       -0.2523
      7 N         139.3677  140.5112  165.5013 N.am    1  UNL1       -0.2640
      8 C         139.9712  141.8542  165.7882 C.3     1  UNL1        0.0949
      9 C         140.3330  142.2288  167.1949 C.3     1  UNL1        0.0216
     10 C         140.0914  141.2605  168.3147 C.3     1  UNL1        0.0034
     11 C         139.4880  139.9175  168.0278 C.3     1  UNL1        0.0216
     12 C         139.1261  139.5428  166.6211 C.3     1  UNL1        0.0949
     13 C         139.8509  142.4479  163.2617 C.3     1  UNL1        0.1123
     14 C         140.0924  143.4162  162.1419 C.3     1  UNL1        0.0939
     15 C         140.4533  141.6351  169.7214 C.3     1  UNL1        0.0001
     16 C         140.4727  143.0832  169.3307 C.3     1  UNL1        0.0000
     17 C         140.4338  140.1871  170.1120 C.3     1  UNL1        0.0000
     18 C         140.8151  142.0098  171.1280 C.3     1  UNL1        0.0000
     19 C         140.5352  145.3692  159.9077 C.3     1  UNL1        0.0173
     20 C         139.9722  144.0099  159.6155 C.3     1  UNL1        0.0577
     21 C         139.6507  143.6191  158.2035 C.3     1  UNL1        0.0173
@<TRIPOS>BOND
     1    19    20    1
     2    20    21    1
     3    20     1    1
     4     1     2    1
     5     2     3    1
     6     3     4    1
     7     4     5   am
     8     5     6    2
     9     5     7   am
    10     7     8    1
    11     8     9    1
    12     9    10    1
    13    10    15    1
    14    15    16    1
    15    15    17    1
    16    15    18    1
    17    10    11    1
    18    11    12    1
    19     4    13    1
    20    13    14    1
    21    14     1    1
    22    12     7    1
@<TRIPOS>MOLECULE
*****
 21 22 0 0 0
SMALL
GASTEIGER

@<TRIPOS>ATOM
      1 N         143.3042  142.1326  161.1800 N.3     1  UNL1       -0.2711
      2 C         144.1195  140.8868  161.3617 C.3     1  UNL1        0.0939
      3 C         144.1394  140.1906  162.6902 C.3     1  UNL1        0.1123
      4 N         143.3440  140.7402  163.8370 N.am    1  UNL1       -0.2612
      5 C         143.3640  140.0440  165.1655 C.2     1  UNL1        0.3072
      6 O         144.1792  138.7981  165.3472 O.2     1  UNL1       -0.2523
      7 N         142.5686  140.5937  166.3123 N.am    1  UNL1       -0.2640
      8 C         141.7532  141.8396  166.1306 C.3     1  UNL1        0.0949
      9 C         140.9578  142.3893  167.2774 C.3     1  UNL1        0.0216
     10 C         140.9777  141.6931  168.6059 C.3     1  UNL1        0.0034
     11 C         141.7930  140.4472  168.7876 C.3     1  UNL1        0.0216
     12 C         142.5885  139.8975  167.6408 C.3     1  UNL1        0.0949
     13 C         142.5288  141.9861  163.6553 C.3     1  UNL1        0.1123
     14 C         142.5088  142.6823  162.3268 C.3     1  UNL1        0.0939
     15 C         140.1823  142.2428  169.7527 C.3     1  UNL1        0.0001
     16 C         139.4989  140.9174  169.9141 C.3     1  UNL1        0.0000
     17 C         140.8657  143.5682  169.5913 C.3     1  UNL1        0.0000
     18 C         139.3869  142.7925  170.8995 C.3     1  UNL1        0.0000
     19 C         144.3474  142.5352  158.8349 C.3     1  UNL1        0.0173
     20 C         143.2843  142.8288  159.8515 C.3     1  UNL1        0.0577
     21 C         142.2013  143.8187  159.5396 C.3     1  UNL1        0.0173
@<TRIPOS>BOND
     1    19    20    1
     2    20    21    1
     3    20     1    1
     4     1     2    1
     5     2     3    1
     6     3     4    1
     7     4     5   am
     8     5     6    2
     9     5     7   am
    10     7     8    1
    11     8     9    1
    12     9    10    1
    13    10    15    1
    14    15    16    1
    15    15    17    1
    16    15    18    1
    17    10    11    1
    18    11    12    1
    19     4    13    1
    20    13    14    1
    21    14     1    1
    22    12     7    1
@<TRIPOS>MOLECULE
*****
 21 22 0 0 0
SMALL
GASTEIGER

@<TRIPOS>ATOM
      1 N         138.5850  141.9615  159.0836 N.3     1  UNL1       -0.2711
      2 C         138.1869  140.5222  158.9434 C.3     1  UNL1        0.0939
      3 C         138.1724  139.6274  160.1472 C.3     1  UNL1        0.1123
      4 N         138.5559  140.1719  161.4912 N.am    1  UNL1       -0.2612
      5 C         138.5414  139.2771  162.6949 C.2     1  UNL1        0.3072
      6 O         138.1433  137.8378  162.5548 O.2     1  UNL1       -0.2523
      7 N         138.9250  139.8217  164.0389 N.am    1  UNL1       -0.2640
      8 C         139.3231  141.2612  164.1791 C.3     1  UNL1        0.0949
      9 C         139.7066  141.8057  165.5231 C.3     1  UNL1        0.0216
     10 C         139.6921  140.9109  166.7269 C.3     1  UNL1        0.0034
     11 C         139.2940  139.4716  166.5867 C.3     1  UNL1        0.0216
     12 C         138.9104  138.9269  165.2427 C.3     1  UNL1        0.0949
     13 C         138.9540  141.6113  161.6313 C.3     1  UNL1        0.1123
     14 C         138.9686  142.5061  160.4275 C.3     1  UNL1        0.0939
     15 C         140.0757  141.4556  168.0709 C.3     1  UNL1        0.0001
     16 C         140.5410  142.7260  167.4233 C.3     1  UNL1        0.0000
     17 C         139.6104  140.1851  168.7185 C.3     1  UNL1        0.0000
     18 C         140.4593  142.0002  169.4149 C.3     1  UNL1        0.0000
     19 C         137.4933  142.7733  156.8702 C.3     1  UNL1        0.0173
     20 C         138.5995  142.8563  157.8798 C.3     1  UNL1        0.0577
     21 C         139.7203  143.8341  157.6855 C.3     1  UNL1        0.0173
@<TRIPOS>BOND
     1    19    20    1
     2    20    21    1
     3    20     1    1
     4     1     2    1
     5     2     3    1
     6     3     4    1
     7     4     5   am
     8     5     6    2
     9     5     7   am
    10     7     8    1
    11     8     9    1
    12     9    10    1
    13    10    15    1
    14    15    16    1
    15    15    17    1
    16    15    18    1
    17    10    11    1
    18    11    12    1
    19     4    13    1
    20    13    14    1
    21    14     1    1
    22    12     7    1
@<TRIPOS>MOLECULE
*****
 21 22 0 0 0
SMALL
GASTEIGER

@<TRIPOS>ATOM
      1 N         141.4230  144.5929  160.0285 N.3     1  UNL1       -0.2711
      2 C         140.3529  145.5128  160.5370 C.3     1  UNL1        0.0939
      3 C         139.8680  145.3900  161.9511 C.3     1  UNL1        0.1123
      4 N         140.4531  144.3473  162.8567 N.am    1  UNL1       -0.2612
      5 C         139.9682  144.2244  164.2709 C.2     1  UNL1        0.3072
      6 O         138.8981  145.1443  164.7793 O.2     1  UNL1       -0.2523
      7 N         140.5534  143.1817  165.1765 N.am    1  UNL1       -0.2640
      8 C         141.6236  142.2618  164.6681 C.3     1  UNL1        0.0949
      9 C         142.2088  141.2191  165.5737 C.3     1  UNL1        0.0216
     10 C         141.7238  141.0962  166.9879 C.3     1  UNL1        0.0034
     11 C         140.6537  142.0161  167.4963 C.3     1  UNL1        0.0216
     12 C         140.0684  143.0589  166.5906 C.3     1  UNL1        0.0949
     13 C         141.5233  143.4274  162.3483 C.3     1  UNL1        0.1123
     14 C         142.0082  143.5502  160.9342 C.3     1  UNL1        0.0939
     15 C         142.3091  140.0534  167.8935 C.3     1  UNL1        0.0001
     16 C         142.6994  139.2348  166.6988 C.3     1  UNL1        0.0000
     17 C         141.9187  140.8721  169.0883 C.3     1  UNL1        0.0000
     18 C         142.8943  139.0108  168.7992 C.3     1  UNL1        0.0000
     19 C         142.9300  143.7535  158.0858 C.3     1  UNL1        0.0173
     20 C         141.9080  144.7158  158.6144 C.3     1  UNL1        0.0577
     21 C         141.3709  145.8008  157.7289 C.3     1  UNL1        0.0173
@<TRIPOS>BOND
     1    19    20    1
     2    20    21    1
     3    20     1    1
     4     1     2    1
     5     2     3    1
     6     3     4    1
     7     4     5   am
     8     5     6    2
     9     5     7   am
    10     7     8    1
    11     8     9    1
    12     9    10    1
    13    10    15    1
    14    15    16    1
    15    15    17    1
    16    15    18    1
    17    10    11    1
    18    11    12    1
    19     4    13    1
    20    13    14    1
    21    14     1    1
    22    12     7    1
