@<TRIPOS>MOLECULE
*****
 31 33 0 0 0
SMALL
GASTEIGER

@<TRIPOS>ATOM
      1 C         137.8543  139.9778  163.8471 C.ar    1  UNL1        0.1409
      2 N         137.9738  140.0719  165.3395 N.ar    1  UNL1       -0.1986
      3 C         138.6805  138.9927  166.1048 C.ar    1  UNL1        0.2181
      4 N         139.2677  137.8194  165.3779 N.ar    1  UNL1       -0.2120
      5 C         139.1483  137.7252  163.8857 C.ar    1  UNL1        0.1091
      6 C         138.4415  138.8045  163.1202 C.ar    1  UNL1        0.1040
      7 C         138.3221  138.7104  161.6280 C.2     1  UNL1        0.2470
      8 N         139.4103  138.0578  160.8281 N.am    1  UNL1       -0.3252
      9 O         137.1143  139.2688  160.9356 O.2     1  UNL1       -0.2702
     10 H         140.2030  137.6912  161.2826 H       1  UNL1        0.1453
     11 H         139.3319  137.9960  159.8487 H       1  UNL1        0.1453
     12 N         137.1476  141.0571  163.0818 N.pl3   1  UNL1       -0.2977
     13 H         136.2238  140.9164  162.7718 H       1  UNL1        0.1536
     14 C         139.9505  146.2311  161.9099 C.3     1  UNL1        0.0310
     15 C         139.2497  144.9376  162.2029 C.ar    1  UNL1       -0.0218
     16 C         139.2575  143.8336  161.1874 C.ar    1  UNL1       -0.0030
     17 C         138.5568  142.5401  161.4804 C.ar    1  UNL1        0.0143
     18 C         137.8483  142.3506  162.7888 C.ar    1  UNL1        0.0493
     19 C         137.8405  143.4545  163.8043 C.ar    1  UNL1        0.0143
     20 C         138.5413  144.7480  163.5113 C.ar    1  UNL1       -0.0030
     21 N         138.8000  139.0868  167.5971 N.pl3   1  UNL1       -0.3033
     22 H         138.4336  138.3719  168.1663 H       1  UNL1        0.1496
     23 C         139.4777  140.2701  168.2221 C.3     1  UNL1        0.0858
     24 C         140.4676  141.0721  167.4303 C.3     1  UNL1        0.0209
     25 C         141.1453  142.2554  168.0553 C.3     1  UNL1        0.0018
     26 C         140.8330  142.6366  169.4721 C.3     1  UNL1        0.0015
     27 C         139.8431  141.8346  170.2638 C.3     1  UNL1        0.0172
     28 C         139.1654  140.6514  169.6388 C.3     1  UNL1        0.0690
     29 N         138.1755  139.8494  170.4305 N.3     1  UNL1       -0.3209
     30 H         137.8159  139.0885  169.8542 H       1  UNL1        0.1189
     31 H         137.4041  140.4509  170.7195 H       1  UNL1        0.1189
@<TRIPOS>BOND
     1    14    15    1
     2    15    16   ar
     3    16    17   ar
     4    17    18   ar
     5    18    12    1
     6    12     1    1
     7     1     2   ar
     8     2     3   ar
     9     3    21    1
    10    23    21    1
    11    23    24    1
    12    24    25    1
    13    25    26    1
    14    26    27    1
    15    27    28    1
    16    28    29    1
    17     3     4   ar
    18     4     5   ar
    19     5     6   ar
    20     6     7    1
    21     7     8   am
    22     7     9    2
    23    18    19   ar
    24    19    20   ar
    25    20    15   ar
    26     6     1   ar
    27    28    23    1
    28    12    13    1
    29    21    22    1
    30    29    30    1
    31    29    31    1
    32     8    10    1
    33     8    11    1
@<TRIPOS>MOLECULE
*****
 31 33 0 0 0
SMALL
GASTEIGER

@<TRIPOS>ATOM
      1 C         141.8806  140.0054  167.5561 C.ar    1  UNL1        0.1409
      2 N         140.6996  139.6781  166.6909 N.ar    1  UNL1       -0.1986
      3 C         139.3276  139.6016  167.2923 C.ar    1  UNL1        0.2181
      4 N         139.1364  139.8524  168.7588 N.ar    1  UNL1       -0.2120
      5 C         140.3172  140.1796  169.6239 C.ar    1  UNL1        0.1091
      6 C         141.6894  140.2561  169.0226 C.ar    1  UNL1        0.1040
      7 C         142.8702  140.5834  169.8877 C.2     1  UNL1        0.2470
      8 N         143.2652  139.6570  170.9994 N.am    1  UNL1       -0.3252
      9 O         143.6560  141.8370  169.6412 O.2     1  UNL1       -0.2702
     10 H         142.7494  138.8342  171.1612 H       1  UNL1        0.1453
     11 H         144.0402  139.8718  171.5672 H       1  UNL1        0.1453
     12 N         143.2526  140.0819  166.9547 N.pl3   1  UNL1       -0.2977
     13 H         143.9727  139.5041  167.2965 H       1  UNL1        0.1536
     14 C         144.3518  143.9089  162.4664 C.3     1  UNL1        0.0310
     15 C         144.0770  142.9522  163.5885 C.ar    1  UNL1       -0.0218
     16 C         143.6475  143.4714  164.9286 C.ar    1  UNL1       -0.0030
     17 C         143.3727  142.5146  166.0506 C.ar    1  UNL1        0.0143
     18 C         143.5274  141.0387  165.8326 C.ar    1  UNL1        0.0493
     19 C         143.9569  140.5195  164.4926 C.ar    1  UNL1        0.0143
     20 C         144.2317  141.4762  163.3705 C.ar    1  UNL1       -0.0030
     21 N         138.1467  139.2743  166.4271 N.pl3   1  UNL1       -0.3033
     22 H         137.2536  139.1766  166.8297 H       1  UNL1        0.1496
     23 C         138.3266  139.0959  164.9487 C.3     1  UNL1        0.0858
     24 C         138.8260  137.7896  164.4061 C.3     1  UNL1        0.0209
     25 C         139.0059  137.6113  162.9277 C.3     1  UNL1        0.0018
     26 C         138.6864  138.7392  161.9918 C.3     1  UNL1        0.0015
     27 C         138.1871  140.0454  162.5344 C.3     1  UNL1        0.0172
     28 C         138.0072  140.2238  164.0128 C.3     1  UNL1        0.0690
     29 N         137.5079  141.5300  164.5554 N.3     1  UNL1       -0.3209
     30 H         137.4463  141.4746  165.5720 H       1  UNL1        0.1189
     31 H         136.5848  141.7280  164.1692 H       1  UNL1        0.1189
@<TRIPOS>BOND
     1    14    15    1
     2    15    16   ar
     3    16    17   ar
     4    17    18   ar
     5    18    12    1
     6    12     1    1
     7     1     2   ar
     8     2     3   ar
     9     3    21    1
    10    23    21    1
    11    23    24    1
    12    24    25    1
    13    25    26    1
    14    26    27    1
    15    27    28    1
    16    28    29    1
    17     3     4   ar
    18     4     5   ar
    19     5     6   ar
    20     6     7    1
    21     7     8   am
    22     7     9    2
    23    18    19   ar
    24    19    20   ar
    25    20    15   ar
    26     6     1   ar
    27    28    23    1
    28    12    13    1
    29    21    22    1
    30    29    30    1
    31    29    31    1
    32     8    10    1
    33     8    11    1
@<TRIPOS>MOLECULE
*****
 31 33 0 0 0
SMALL
GASTEIGER

@<TRIPOS>ATOM
      1 C         140.4760  139.7322  166.7470 C.ar    1  UNL1        0.1409
      2 N         140.2626  138.9310  165.4969 N.ar    1  UNL1       -0.1986
      3 C         138.9653  138.2098  165.2805 C.ar    1  UNL1        0.2181
      4 N         137.8813  138.2898  166.3142 N.ar    1  UNL1       -0.2120
      5 C         138.0946  139.0909  167.5642 C.ar    1  UNL1        0.1091
      6 C         139.3920  139.8121  167.7806 C.ar    1  UNL1        0.1040
      7 C         139.6053  140.6133  169.0307 C.2     1  UNL1        0.2470
      8 N         139.2389  140.0335  170.3647 N.am    1  UNL1       -0.3252
      9 O         140.1849  141.9941  168.9467 O.2     1  UNL1       -0.2702
     10 H         138.8584  139.1272  170.4198 H       1  UNL1        0.1453
     11 H         139.3789  140.5593  171.1852 H       1  UNL1        0.1453
     12 N         141.7733  140.4534  166.9633 N.pl3   1  UNL1       -0.2977
     13 H         142.3856  140.1617  167.6769 H       1  UNL1        0.1536
     14 C         143.2310  145.1158  163.4796 C.3     1  UNL1        0.0310
     15 C         142.8666  143.9502  164.3505 C.ar    1  UNL1       -0.0218
     16 C         141.4262  143.6626  164.6545 C.ar    1  UNL1       -0.0030
     17 C         141.0618  142.4969  165.5254 C.ar    1  UNL1        0.0143
     18 C         142.1377  141.6190  166.0924 C.ar    1  UNL1        0.0493
     19 C         143.5781  141.9067  165.7884 C.ar    1  UNL1        0.0143
     20 C         143.9426  143.0723  164.9175 C.ar    1  UNL1       -0.0030
     21 N         138.7520  137.4086  164.0304 N.pl3   1  UNL1       -0.3033
     22 H         138.4403  136.4767  164.0902 H       1  UNL1        0.1496
     23 C         139.0135  138.0274  162.6893 C.3     1  UNL1        0.0858
     24 C         137.9292  138.7959  161.9936 C.3     1  UNL1        0.0209
     25 C         138.1907  139.4148  160.6525 C.3     1  UNL1        0.0018
     26 C         139.5365  139.2651  160.0070 C.3     1  UNL1        0.0015
     27 C         140.6206  138.4966  160.7026 C.3     1  UNL1        0.0172
     28 C         140.3591  137.8778  162.0438 C.3     1  UNL1        0.0690
     29 N         141.4433  137.1093  162.7394 N.3     1  UNL1       -0.3209
     30 H         141.0942  136.7615  163.6324 H       1  UNL1        0.1189
     31 H         142.2430  137.7212  162.9021 H       1  UNL1        0.1189
@<TRIPOS>BOND
     1    14    15    1
     2    15    16   ar
     3    16    17   ar
     4    17    18   ar
     5    18    12    1
     6    12     1    1
     7     1     2   ar
     8     2     3   ar
     9     3    21    1
    10    23    21    1
    11    23    24    1
    12    24    25    1
    13    25    26    1
    14    26    27    1
    15    27    28    1
    16    28    29    1
    17     3     4   ar
    18     4     5   ar
    19     5     6   ar
    20     6     7    1
    21     7     8   am
    22     7     9    2
    23    18    19   ar
    24    19    20   ar
    25    20    15   ar
    26     6     1   ar
    27    28    23    1
    28    12    13    1
    29    21    22    1
    30    29    30    1
    31    29    31    1
    32     8    10    1
    33     8    11    1
@<TRIPOS>MOLECULE
*****
 31 33 0 0 0
SMALL
GASTEIGER

@<TRIPOS>ATOM
      1 C         140.6485  139.9830  167.3786 C.ar    1  UNL1        0.1409
      2 N         141.5686  139.4719  166.3098 N.ar    1  UNL1       -0.1986
      3 C         142.8971  138.8834  166.6823 C.ar    1  UNL1        0.2181
      4 N         143.3056  138.8060  168.1235 N.ar    1  UNL1       -0.2120
      5 C         142.3856  139.3171  169.1923 C.ar    1  UNL1        0.1091
      6 C         141.0570  139.9056  168.8199 C.ar    1  UNL1        0.1040
      7 C         140.1370  140.4166  169.8886 C.2     1  UNL1        0.2470
      8 N         139.7997  139.5498  171.0654 N.am    1  UNL1       -0.3252
      9 O         139.5542  141.7946  169.7806 O.2     1  UNL1       -0.2702
     10 H         140.1821  138.6454  171.1363 H       1  UNL1        0.1453
     11 H         139.1958  139.8852  171.7669 H       1  UNL1        0.1453
     12 N         139.3200  140.5714  167.0061 N.pl3   1  UNL1       -0.2977
     13 H         138.4990  140.2498  167.4440 H       1  UNL1        0.1536
     14 C         139.0095  144.8853  162.8475 C.3     1  UNL1        0.0310
     15 C         139.0871  143.8068  163.8872 C.ar    1  UNL1       -0.0218
     16 C         140.0162  143.9565  165.0552 C.ar    1  UNL1       -0.0030
     17 C         140.0939  142.8781  166.0948 C.ar    1  UNL1        0.0143
     18 C         139.2424  141.6499  165.9665 C.ar    1  UNL1        0.0493
     19 C         138.3133  141.5002  164.7985 C.ar    1  UNL1        0.0143
     20 C         138.2357  142.5786  163.7588 C.ar    1  UNL1       -0.0030
     21 N         143.8172  138.3723  165.6135 N.pl3   1  UNL1       -0.3033
     22 H         144.2752  137.5086  165.7298 H       1  UNL1        0.1496
     23 C         144.0396  139.1773  164.3674 C.3     1  UNL1        0.0858
     24 C         145.0026  140.3273  164.3794 C.3     1  UNL1        0.0209
     25 C         145.2250  141.1323  163.1333 C.3     1  UNL1        0.0018
     26 C         144.4844  140.7871  161.8753 C.3     1  UNL1        0.0015
     27 C         143.5215  139.6371  161.8634 C.3     1  UNL1        0.0172
     28 C         143.2991  138.8321  163.1095 C.3     1  UNL1        0.0690
     29 N         142.3362  137.6821  163.0976 N.3     1  UNL1       -0.3209
     30 H         142.3097  137.2513  164.0217 H       1  UNL1        0.1189
     31 H         142.6386  136.9926  162.4095 H       1  UNL1        0.1189
@<TRIPOS>BOND
     1    14    15    1
     2    15    16   ar
     3    16    17   ar
     4    17    18   ar
     5    18    12    1
     6    12     1    1
     7     1     2   ar
     8     2     3   ar
     9     3    21    1
    10    23    21    1
    11    23    24    1
    12    24    25    1
    13    25    26    1
    14    26    27    1
    15    27    28    1
    16    28    29    1
    17     3     4   ar
    18     4     5   ar
    19     5     6   ar
    20     6     7    1
    21     7     8   am
    22     7     9    2
    23    18    19   ar
    24    19    20   ar
    25    20    15   ar
    26     6     1   ar
    27    28    23    1
    28    12    13    1
    29    21    22    1
    30    29    30    1
    31    29    31    1
    32     8    10    1
    33     8    11    1
@<TRIPOS>MOLECULE
*****
 31 33 0 0 0
SMALL
GASTEIGER

@<TRIPOS>ATOM
      1 C         140.5813  139.0845  165.2181 C.ar    1  UNL1        0.1409
      2 N         140.3523  139.6658  166.5819 N.ar    1  UNL1       -0.1986
      3 C         139.0895  139.3528  167.3283 C.ar    1  UNL1        0.2181
      4 N         138.0556  138.4584  166.7111 N.ar    1  UNL1       -0.2120
      5 C         138.2844  137.8771  165.3474 C.ar    1  UNL1        0.1091
      6 C         139.5473  138.1901  164.6009 C.ar    1  UNL1        0.1040
      7 C         139.7761  137.6088  163.2372 C.2     1  UNL1        0.2470
      8 N         138.6778  137.6366  162.2161 N.am    1  UNL1       -0.3252
      9 O         141.1034  136.9997  162.8947 O.2     1  UNL1       -0.2702
     10 H         137.8066  138.0364  162.4409 H       1  UNL1        0.1453
     11 H         138.8280  137.2550  161.3210 H       1  UNL1        0.1453
     12 N         141.8441  139.3976  164.4717 N.pl3   1  UNL1       -0.2977
     13 H         142.3652  138.6711  164.0595 H       1  UNL1        0.1536
     14 C         143.7194  145.0772  163.9979 C.3     1  UNL1        0.0310
     15 C         143.2506  143.6573  164.1163 C.ar    1  UNL1       -0.0218
     16 C         142.3203  143.0864  163.0875 C.ar    1  UNL1       -0.0030
     17 C         141.8514  141.6665  163.2060 C.ar    1  UNL1        0.0143
     18 C         142.3129  140.8175  164.3532 C.ar    1  UNL1        0.0493
     19 C         143.2432  141.3884  165.3820 C.ar    1  UNL1        0.0143
     20 C         143.7120  142.8084  165.2636 C.ar    1  UNL1       -0.0030
     21 N         138.8606  139.9341  168.6921 N.pl3   1  UNL1       -0.3033
     22 H         138.0313  139.7295  169.1815 H       1  UNL1        0.1496
     23 C         139.8953  140.8272  169.3100 C.3     1  UNL1        0.0858
     24 C         140.4005  142.0223  168.5572 C.3     1  UNL1        0.0209
     25 C         141.4352  142.9154  169.1751 C.3     1  UNL1        0.0018
     26 C         141.9646  142.6134  170.5457 C.3     1  UNL1        0.0015
     27 C         141.4594  141.4184  171.2984 C.3     1  UNL1        0.0172
     28 C         140.4247  140.5253  170.6805 C.3     1  UNL1        0.0690
     29 N         139.9195  139.3302  171.4332 N.3     1  UNL1       -0.3209
     30 H         139.2261  138.8405  170.8677 H       1  UNL1        0.1189
     31 H         139.4916  139.6350  172.3074 H       1  UNL1        0.1189
@<TRIPOS>BOND
     1    14    15    1
     2    15    16   ar
     3    16    17   ar
     4    17    18   ar
     5    18    12    1
     6    12     1    1
     7     1     2   ar
     8     2     3   ar
     9     3    21    1
    10    23    21    1
    11    23    24    1
    12    24    25    1
    13    25    26    1
    14    26    27    1
    15    27    28    1
    16    28    29    1
    17     3     4   ar
    18     4     5   ar
    19     5     6   ar
    20     6     7    1
    21     7     8   am
    22     7     9    2
    23    18    19   ar
    24    19    20   ar
    25    20    15   ar
    26     6     1   ar
    27    28    23    1
    28    12    13    1
    29    21    22    1
    30    29    30    1
    31    29    31    1
    32     8    10    1
    33     8    11    1
@<TRIPOS>MOLECULE
*****
 31 33 0 0 0
SMALL
GASTEIGER

@<TRIPOS>ATOM
      1 C         140.4465  140.6196  167.5271 C.ar    1  UNL1        0.1409
      2 N         141.5317  140.7742  166.5031 N.ar    1  UNL1       -0.1986
      3 C         142.7519  141.5868  166.8203 C.ar    1  UNL1        0.2181
      4 N         142.8871  142.2448  168.1615 N.ar    1  UNL1       -0.2120
      5 C         141.8020  142.0902  169.1855 C.ar    1  UNL1        0.1091
      6 C         140.5817  141.2775  168.8683 C.ar    1  UNL1        0.1040
      7 C         139.4966  141.1229  169.8923 C.2     1  UNL1        0.2470
      8 N         139.1819  142.2522  170.8280 N.am    1  UNL1       -0.3252
      9 O         138.7262  139.8389  169.9807 O.2     1  UNL1       -0.2702
     10 H         139.6875  143.0950  170.7700 H       1  UNL1        0.1453
     11 H         138.4697  142.1507  171.5001 H       1  UNL1        0.1453
     12 N         139.2263  139.8070  167.2099 N.pl3   1  UNL1       -0.2977
     13 H         138.6363  139.5009  167.9362 H       1  UNL1        0.1536
     14 C         137.9412  138.4218  161.5152 C.3     1  UNL1        0.0310
     15 C         138.2625  138.7681  162.9389 C.ar    1  UNL1       -0.0218
     16 C         137.9303  140.1299  163.4728 C.ar    1  UNL1       -0.0030
     17 C         138.2515  140.4762  164.8965 C.ar    1  UNL1        0.0143
     18 C         138.9050  139.4607  165.7863 C.ar    1  UNL1        0.0493
     19 C         139.2373  138.0989  165.2523 C.ar    1  UNL1        0.0143
     20 C         138.9160  137.7526  163.8286 C.ar    1  UNL1       -0.0030
     21 N         143.8371  141.7415  165.7963 N.pl3   1  UNL1       -0.3033
     22 H         144.6737  141.2301  165.8846 H       1  UNL1        0.1496
     23 C         143.6475  142.6753  164.6378 C.3     1  UNL1        0.0858
     24 C         142.4344  143.5553  164.5746 C.3     1  UNL1        0.0209
     25 C         142.2448  144.4891  163.4161 C.3     1  UNL1        0.0018
     26 C         143.2683  144.5429  162.3209 C.3     1  UNL1        0.0015
     27 C         144.4814  143.6629  162.3841 C.3     1  UNL1        0.0172
     28 C         144.6710  142.7291  163.5426 C.3     1  UNL1        0.0690
     29 N         145.8840  141.8491  163.6058 N.3     1  UNL1       -0.3209
     30 H         145.8503  141.2841  164.4544 H       1  UNL1        0.1189
     31 H         146.7238  142.4279  163.6159 H       1  UNL1        0.1189
@<TRIPOS>BOND
     1    14    15    1
     2    15    16   ar
     3    16    17   ar
     4    17    18   ar
     5    18    12    1
     6    12     1    1
     7     1     2   ar
     8     2     3   ar
     9     3    21    1
    10    23    21    1
    11    23    24    1
    12    24    25    1
    13    25    26    1
    14    26    27    1
    15    27    28    1
    16    28    29    1
    17     3     4   ar
    18     4     5   ar
    19     5     6   ar
    20     6     7    1
    21     7     8   am
    22     7     9    2
    23    18    19   ar
    24    19    20   ar
    25    20    15   ar
    26     6     1   ar
    27    28    23    1
    28    12    13    1
    29    21    22    1
    30    29    30    1
    31    29    31    1
    32     8    10    1
    33     8    11    1
@<TRIPOS>MOLECULE
*****
 31 33 0 0 0
SMALL
GASTEIGER

@<TRIPOS>ATOM
      1 C         138.8383  139.8779  160.6490 C.ar    1  UNL1        0.1409
      2 N         139.7499  139.0233  161.4788 N.ar    1  UNL1       -0.1986
      3 C         140.9370  138.3592  160.8465 C.ar    1  UNL1        0.2181
      4 N         141.2125  138.5498  159.3844 N.ar    1  UNL1       -0.2120
      5 C         140.3010  139.4044  158.5546 C.ar    1  UNL1        0.1091
      6 C         139.1138  140.0685  159.1869 C.ar    1  UNL1        0.1040
      7 C         138.2022  140.9231  158.3570 C.2     1  UNL1        0.2470
      8 N         137.3654  140.3003  157.2791 N.am    1  UNL1       -0.3252
      9 O         138.1275  142.4005  158.6051 O.2     1  UNL1       -0.2702
     10 H         137.4145  139.3306  157.1163 H       1  UNL1        0.1453
     11 H         136.7671  140.8612  156.7345 H       1  UNL1        0.1453
     12 N         137.6512  140.5420  161.2812 N.pl3   1  UNL1       -0.2977
     13 H         136.7405  140.2768  161.0177 H       1  UNL1        0.1536
     14 C         138.4531  144.8146  165.4167 C.3     1  UNL1        0.0310
     15 C         138.2526  143.7464  164.3828 C.ar    1  UNL1       -0.0218
     16 C         138.1518  142.3090  164.7994 C.ar    1  UNL1       -0.0030
     17 C         137.9513  141.2408  163.7655 C.ar    1  UNL1        0.0143
     18 C         137.8517  141.6101  162.3151 C.ar    1  UNL1        0.0493
     19 C         137.9525  143.0476  161.8986 C.ar    1  UNL1        0.0143
     20 C         138.1530  144.1157  162.9325 C.ar    1  UNL1       -0.0030
     21 N         141.8486  137.5046  161.6764 N.pl3   1  UNL1       -0.3033
     22 H         142.0246  136.5725  161.4129 H       1  UNL1        0.1496
     23 C         142.4921  138.0702  162.9076 C.3     1  UNL1        0.0858
     24 C         141.8302  137.9041  164.2435 C.3     1  UNL1        0.0209
     25 C         142.4737  138.4697  165.4748 C.3     1  UNL1        0.0018
     26 C         143.7790  139.2013  165.3702 C.3     1  UNL1        0.0015
     27 C         144.4408  139.3674  164.0344 C.3     1  UNL1        0.0172
     28 C         143.7974  138.8018  162.8031 C.3     1  UNL1        0.0690
     29 N         144.4592  138.9678  161.4673 N.3     1  UNL1       -0.3209
     30 H         143.8878  138.5253  160.7475 H       1  UNL1        0.1189
     31 H         145.3801  138.5299  161.4874 H       1  UNL1        0.1189
@<TRIPOS>BOND
     1    14    15    1
     2    15    16   ar
     3    16    17   ar
     4    17    18   ar
     5    18    12    1
     6    12     1    1
     7     1     2   ar
     8     2     3   ar
     9     3    21    1
    10    23    21    1
    11    23    24    1
    12    24    25    1
    13    25    26    1
    14    26    27    1
    15    27    28    1
    16    28    29    1
    17     3     4   ar
    18     4     5   ar
    19     5     6   ar
    20     6     7    1
    21     7     8   am
    22     7     9    2
    23    18    19   ar
    24    19    20   ar
    25    20    15   ar
    26     6     1   ar
    27    28    23    1
    28    12    13    1
    29    21    22    1
    30    29    30    1
    31    29    31    1
    32     8    10    1
    33     8    11    1
@<TRIPOS>MOLECULE
*****
 31 33 0 0 0
SMALL
GASTEIGER

@<TRIPOS>ATOM
      1 C         142.7603  140.1326  166.6118 C.ar    1  UNL1        0.1409
      2 N         143.3706  141.0743  165.6163 N.ar    1  UNL1       -0.1986
      3 C         143.7868  142.4507  166.0434 C.ar    1  UNL1        0.2181
      4 N         143.5928  142.8854  167.4659 N.ar    1  UNL1       -0.2120
      5 C         142.9826  141.9437  168.4613 C.ar    1  UNL1        0.1091
      6 C         142.5663  140.5673  168.0343 C.ar    1  UNL1        0.1040
      7 C         141.9561  139.6257  169.0297 C.2     1  UNL1        0.2470
      8 N         140.4858  139.6904  169.3197 N.am    1  UNL1       -0.3252
      9 O         142.8161  138.6194  169.7350 O.2     1  UNL1       -0.2702
     10 H         139.9213  140.3509  168.8567 H       1  UNL1        0.1453
     11 H         140.0853  139.0723  169.9731 H       1  UNL1        0.1453
     12 N         142.3440  138.7563  166.1847 N.pl3   1  UNL1       -0.2977
     13 H         142.7778  137.9659  166.5802 H       1  UNL1        0.1536
     14 C         138.0352  138.0677  162.0665 C.3     1  UNL1        0.0310
     15 C         139.1124  138.2398  163.0961 C.ar    1  UNL1       -0.0218
     16 C         140.4143  137.5095  162.9488 C.ar    1  UNL1       -0.0030
     17 C         141.4915  137.6817  163.9783 C.ar    1  UNL1        0.0143
     18 C         141.2668  138.5841  165.1552 C.ar    1  UNL1        0.0493
     19 C         139.9649  139.3144  165.3025 C.ar    1  UNL1        0.0143
     20 C         138.8877  139.1423  164.2729 C.ar    1  UNL1       -0.0030
     21 N         144.3971  143.3924  165.0480 N.pl3   1  UNL1       -0.3033
     22 H         145.0121  144.0987  165.3514 H       1  UNL1        0.1496
     23 C         144.0703  143.2578  163.5902 C.3     1  UNL1        0.0858
     24 C         142.8424  143.9150  163.0330 C.3     1  UNL1        0.0209
     25 C         142.5156  143.7805  161.5753 C.3     1  UNL1        0.0018
     26 C         143.4168  142.9887  160.6746 C.3     1  UNL1        0.0015
     27 C         144.6446  142.3316  161.2318 C.3     1  UNL1        0.0172
     28 C         144.9714  142.4661  162.6895 C.3     1  UNL1        0.0690
     29 N         146.1992  141.8090  163.2467 N.3     1  UNL1       -0.3209
     30 H         146.2650  142.0029  164.2459 H       1  UNL1        0.1189
     31 H         147.0254  142.1758  162.7741 H       1  UNL1        0.1189
@<TRIPOS>BOND
     1    14    15    1
     2    15    16   ar
     3    16    17   ar
     4    17    18   ar
     5    18    12    1
     6    12     1    1
     7     1     2   ar
     8     2     3   ar
     9     3    21    1
    10    23    21    1
    11    23    24    1
    12    24    25    1
    13    25    26    1
    14    26    27    1
    15    27    28    1
    16    28    29    1
    17     3     4   ar
    18     4     5   ar
    19     5     6   ar
    20     6     7    1
    21     7     8   am
    22     7     9    2
    23    18    19   ar
    24    19    20   ar
    25    20    15   ar
    26     6     1   ar
    27    28    23    1
    28    12    13    1
    29    21    22    1
    30    29    30    1
    31    29    31    1
    32     8    10    1
    33     8    11    1
@<TRIPOS>MOLECULE
*****
 31 33 0 0 0
SMALL
GASTEIGER

@<TRIPOS>ATOM
      1 C         142.1845  140.4242  167.6234 C.ar    1  UNL1        0.1409
      2 N         141.5278  141.3591  166.6513 N.ar    1  UNL1       -0.1986
      3 C         140.6746  142.4857  167.1539 C.ar    1  UNL1        0.2181
      4 N         140.4779  142.6775  168.6285 N.ar    1  UNL1       -0.2120
      5 C         141.1345  141.7427  169.6006 C.ar    1  UNL1        0.1091
      6 C         141.9878  140.6160  169.0980 C.ar    1  UNL1        0.1040
      7 C         142.6444  139.6812  170.0701 C.2     1  UNL1        0.2470
      8 N         143.0502  140.1741  171.4274 N.am    1  UNL1       -0.3252
      9 O         142.8952  138.2534  169.6848 O.2     1  UNL1       -0.2702
     10 H         142.8856  141.1113  171.6802 H       1  UNL1        0.1453
     11 H         143.4812  139.5606  172.0654 H       1  UNL1        0.1453
     12 N         143.0377  139.2976  167.1208 N.pl3   1  UNL1       -0.2977
     13 H         143.5835  138.7743  167.7513 H       1  UNL1        0.1536
     14 C         143.1245  137.9799  161.2679 C.3     1  UNL1        0.0310
     15 C         143.1028  138.3093  162.7312 C.ar    1  UNL1       -0.0218
     16 C         144.2098  139.1229  163.3332 C.ar    1  UNL1       -0.0030
     17 C         144.1881  139.4523  164.7965 C.ar    1  UNL1        0.0143
     18 C         143.0594  138.9681  165.6576 C.ar    1  UNL1        0.0493
     19 C         141.9524  138.1545  165.0555 C.ar    1  UNL1        0.0143
     20 C         141.9741  137.8251  163.5923 C.ar    1  UNL1       -0.0030
     21 N         140.0179  143.4206  166.1818 N.pl3   1  UNL1       -0.3033
     22 H         140.1427  144.3929  166.2730 H       1  UNL1        0.1496
     23 C         139.1712  142.8740  165.0708 C.3     1  UNL1        0.0858
     24 C         138.6947  141.4525  165.1207 C.3     1  UNL1        0.0209
     25 C         137.8480  140.9059  164.0097 C.3     1  UNL1        0.0018
     26 C         137.4777  141.7809  162.8488 C.3     1  UNL1        0.0015
     27 C         137.9541  143.2023  162.7991 C.3     1  UNL1        0.0172
     28 C         138.8009  143.7489  163.9100 C.3     1  UNL1        0.0690
     29 N         139.2773  145.1703  163.8603 N.3     1  UNL1       -0.3209
     30 H         139.8358  145.3709  164.6899 H       1  UNL1        0.1189
     31 H         138.4734  145.7975  163.8316 H       1  UNL1        0.1189
@<TRIPOS>BOND
     1    14    15    1
     2    15    16   ar
     3    16    17   ar
     4    17    18   ar
     5    18    12    1
     6    12     1    1
     7     1     2   ar
     8     2     3   ar
     9     3    21    1
    10    23    21    1
    11    23    24    1
    12    24    25    1
    13    25    26    1
    14    26    27    1
    15    27    28    1
    16    28    29    1
    17     3     4   ar
    18     4     5   ar
    19     5     6   ar
    20     6     7    1
    21     7     8   am
    22     7     9    2
    23    18    19   ar
    24    19    20   ar
    25    20    15   ar
    26     6     1   ar
    27    28    23    1
    28    12    13    1
    29    21    22    1
    30    29    30    1
    31    29    31    1
    32     8    10    1
    33     8    11    1
