@<TRIPOS>MOLECULE
*****
 32 36 0 0 0
SMALL
GASTEIGER

@<TRIPOS>ATOM
      1 C         141.4975  142.7664  165.1634 C.ar    1  UNL1        0.0906
      2 C         140.4159  142.9251  166.1905 C.ar    1  UNL1        0.1496
      3 O         139.4118  143.9043  165.6587 O.2     1  UNL1       -0.4534
      4 C         139.8727  144.3508  164.3029 C.ar    1  UNL1        0.1454
      5 C         139.2853  145.3069  163.3076 C.ar    1  UNL1        0.0406
      6 C         139.9868  145.5597  162.0061 C.ar    1  UNL1        0.0395
      7 C         141.2759  144.8564  161.7000 C.ar    1  UNL1        0.1311
      8 O         141.9775  145.1093  160.3985 O.3     1  UNL1       -0.5058
      9 C         141.8634  143.9003  162.6954 C.ar    1  UNL1        0.0308
     10 C         141.1618  143.6475  163.9968 C.ar    1  UNL1        0.0421
     11 H         141.6105  145.7065  159.7767 H       1  UNL1        0.2922
     12 C         140.3500  142.2271  167.5166 C.ar    1  UNL1        0.0349
     13 C         140.0016  140.7696  167.5805 C.ar    1  UNL1        0.0061
     14 C         139.9357  140.0716  168.9066 C.ar    1  UNL1        0.0367
     15 C         140.2183  140.8312  170.1688 C.ar    1  UNL1        0.1337
     16 O         140.1524  140.1332  171.4949 O.3     1  UNL1       -0.5055
     17 C         140.5667  142.2887  170.1049 C.ar    1  UNL1        0.0367
     18 C         140.6326  142.9867  168.7788 C.ar    1  UNL1        0.0061
     19 H         139.9347  139.2228  171.5348 H       1  UNL1        0.2922
     20 C         143.8118  139.5448  165.0389 C.3     1  UNL1        0.1109
     21 N         142.6062  140.4293  164.9203 N.am    1  UNL1       -0.2991
     22 C         142.7031  141.8819  165.2820 C.2     1  UNL1        0.2490
     23 O         144.0057  142.4498  165.7624 O.2     1  UNL1       -0.2700
     24 H         141.7513  140.0565  164.6050 H       1  UNL1        0.1498
     25 C         143.1525  143.1971  162.3892 C.3     1  UNL1        0.1024
     26 N         143.1339  141.7936  161.8603 N.3     1  UNL1       -0.2648
     27 C         144.1755  140.7498  161.5856 C.3     1  UNL1        0.1014
     28 C         143.1077  139.8086  161.1122 C.3     1  UNL1        0.1244
     29 C         144.1493  138.7649  160.8375 C.3     1  UNL1        0.0620
     30 C         143.0815  137.8238  160.3642 C.3     1  UNL1        0.1446
     31 O         142.0399  138.8676  160.6390 O.3     1  UNL1       -0.3556
     32 C         142.0661  140.8524  161.3870 C.3     1  UNL1        0.1014
@<TRIPOS>BOND
     1    20    21    1
     2    21    22   am
     3    22    23    2
     4    22     1    1
     5     1     2   ar
     6     2    12    1
     7    12    13   ar
     8    13    14   ar
     9    14    15   ar
    10    15    16    1
    11    15    17   ar
    12    17    18   ar
    13     2     3   ar
    14     3     4   ar
    15     4     5   ar
    16     5     6   ar
    17     6     7   ar
    18     7     8    1
    19     7     9   ar
    20     9    25    1
    21    25    26    1
    22    26    27    1
    23    27    28    1
    24    28    29    1
    25    29    30    1
    26    30    31    1
    27    28    32    1
    28     9    10   ar
    29    10     1   ar
    30    18    12   ar
    31    10     4   ar
    32    32    26    1
    33    31    28    1
    34    21    24    1
    35    16    19    1
    36     8    11    1
@<TRIPOS>MOLECULE
*****
 32 36 0 0 0
SMALL
GASTEIGER

@<TRIPOS>ATOM
      1 C         140.1433  141.1856  165.7314 C.ar    1  UNL1        0.0906
      2 C         140.6282  141.9403  166.9336 C.ar    1  UNL1        0.1496
      3 O         140.2016  143.3708  166.7858 O.2     1  UNL1       -0.4534
      4 C         139.4531  143.5001  165.4924 C.ar    1  UNL1        0.1454
      5 C         138.7997  144.6731  164.8238 C.ar    1  UNL1        0.0406
      6 C         138.1103  144.4956  163.5036 C.ar    1  UNL1        0.0395
      7 C         138.0742  143.1450  162.8519 C.ar    1  UNL1        0.1311
      8 O         137.3847  142.9675  161.5316 O.3     1  UNL1       -0.5058
      9 C         138.7276  141.9720  163.5204 C.ar    1  UNL1        0.0308
     10 C         139.4170  142.1495  164.8407 C.ar    1  UNL1        0.0421
     11 H         136.9765  143.7003  161.1139 H       1  UNL1        0.2922
     12 C         141.4035  141.3656  168.0818 C.ar    1  UNL1        0.0349
     13 C         140.9458  140.0950  168.7346 C.ar    1  UNL1        0.0061
     14 C         141.7211  139.5203  169.8829 C.ar    1  UNL1        0.0367
     15 C         142.9541  140.2160  170.3784 C.ar    1  UNL1        0.1337
     16 O         143.7295  139.6413  171.5266 O.3     1  UNL1       -0.5055
     17 C         143.4118  141.4866  169.7256 C.ar    1  UNL1        0.0367
     18 C         142.6365  142.0614  168.5773 C.ar    1  UNL1        0.0061
     19 H         143.4436  138.8476  171.9344 H       1  UNL1        0.2922
     20 C         141.8215  137.7871  164.5548 C.3     1  UNL1        0.1109
     21 N         141.6163  139.2492  164.8198 N.am    1  UNL1       -0.2991
     22 C         140.3485  139.7235  165.4664 C.2     1  UNL1        0.2490
     23 O         139.2863  138.7357  165.8481 O.2     1  UNL1       -0.2700
     24 H         142.3135  139.8975  164.5693 H       1  UNL1        0.1498
     25 C         138.6915  140.6214  162.8688 C.3     1  UNL1        0.1024
     26 N         139.8700  140.1397  162.0757 N.3     1  UNL1       -0.2648
     27 C         141.1869  140.7305  161.6676 C.3     1  UNL1        0.1014
     28 C         141.5367  139.4583  160.9541 C.3     1  UNL1        0.1244
     29 C         142.8536  140.0492  160.5461 C.3     1  UNL1        0.0620
     30 C         143.2034  138.7770  159.8325 C.3     1  UNL1        0.1446
     31 O         141.8864  138.1861  160.2406 O.3     1  UNL1       -0.3556
     32 C         140.2198  138.8674  161.3622 C.3     1  UNL1        0.1014
@<TRIPOS>BOND
     1    20    21    1
     2    21    22   am
     3    22    23    2
     4    22     1    1
     5     1     2   ar
     6     2    12    1
     7    12    13   ar
     8    13    14   ar
     9    14    15   ar
    10    15    16    1
    11    15    17   ar
    12    17    18   ar
    13     2     3   ar
    14     3     4   ar
    15     4     5   ar
    16     5     6   ar
    17     6     7   ar
    18     7     8    1
    19     7     9   ar
    20     9    25    1
    21    25    26    1
    22    26    27    1
    23    27    28    1
    24    28    29    1
    25    29    30    1
    26    30    31    1
    27    28    32    1
    28     9    10   ar
    29    10     1   ar
    30    18    12   ar
    31    10     4   ar
    32    32    26    1
    33    31    28    1
    34    21    24    1
    35    16    19    1
    36     8    11    1
@<TRIPOS>MOLECULE
*****
 32 36 0 0 0
SMALL
GASTEIGER

@<TRIPOS>ATOM
      1 C         142.3182  143.0423  165.3443 C.ar    1  UNL1        0.0906
      2 C         141.5225  142.5920  166.5334 C.ar    1  UNL1        0.1496
      3 O         140.1134  143.0754  166.3582 O.2     1  UNL1       -0.4534
      4 C         140.0382  143.8245  165.0608 C.ar    1  UNL1        0.1454
      5 C         138.9050  144.5225  164.3691 C.ar    1  UNL1        0.0406
      6 C         139.1344  145.2000  163.0507 C.ar    1  UNL1        0.0395
      7 C         140.4971  145.1796  162.4240 C.ar    1  UNL1        0.1311
      8 O         140.7265  145.8572  161.1055 O.3     1  UNL1       -0.5058
      9 C         141.6303  144.4815  163.1157 C.ar    1  UNL1        0.0308
     10 C         141.4008  143.8040  164.4341 C.ar    1  UNL1        0.0421
     11 H         140.0187  146.2932  160.6734 H       1  UNL1        0.2922
     12 C         142.0443  141.7978  167.6940 C.ar    1  UNL1        0.0349
     13 C         141.6866  140.3476  167.8318 C.ar    1  UNL1        0.0061
     14 C         142.2083  139.5534  168.9924 C.ar    1  UNL1        0.0367
     15 C         143.0878  140.2094  170.0152 C.ar    1  UNL1        0.1337
     16 O         143.6096  139.4151  171.1758 O.3     1  UNL1       -0.5055
     17 C         143.4455  141.6595  169.8774 C.ar    1  UNL1        0.0367
     18 C         142.9237  142.4537  168.7168 C.ar    1  UNL1        0.0061
     19 H         143.3862  138.5093  171.2618 H       1  UNL1        0.2922
     20 C         145.6548  141.3571  164.0109 C.3     1  UNL1        0.1109
     21 N         144.1976  141.6220  164.2483 N.am    1  UNL1       -0.2991
     22 C         143.7754  142.7774  165.1069 C.2     1  UNL1        0.2490
     23 O         144.8105  143.6677  165.7280 O.2     1  UNL1       -0.2700
     24 H         143.5182  141.0376  163.8406 H       1  UNL1        0.1498
     25 C         142.9930  144.4610  162.4891 C.3     1  UNL1        0.1024
     26 N         143.2385  143.6453  161.2545 N.3     1  UNL1       -0.2648
     27 C         142.4142  143.2431  160.0676 C.3     1  UNL1        0.1014
     28 C         143.5858  142.4917  159.5084 C.3     1  UNL1        0.1244
     29 C         142.7614  142.0895  158.3216 C.3     1  UNL1        0.0620
     30 C         143.9330  141.3381  157.7624 C.3     1  UNL1        0.1446
     31 O         144.7574  141.7403  158.9493 O.3     1  UNL1       -0.3556
     32 C         144.4102  142.8939  160.6952 C.3     1  UNL1        0.1014
@<TRIPOS>BOND
     1    20    21    1
     2    21    22   am
     3    22    23    2
     4    22     1    1
     5     1     2   ar
     6     2    12    1
     7    12    13   ar
     8    13    14   ar
     9    14    15   ar
    10    15    16    1
    11    15    17   ar
    12    17    18   ar
    13     2     3   ar
    14     3     4   ar
    15     4     5   ar
    16     5     6   ar
    17     6     7   ar
    18     7     8    1
    19     7     9   ar
    20     9    25    1
    21    25    26    1
    22    26    27    1
    23    27    28    1
    24    28    29    1
    25    29    30    1
    26    30    31    1
    27    28    32    1
    28     9    10   ar
    29    10     1   ar
    30    18    12   ar
    31    10     4   ar
    32    32    26    1
    33    31    28    1
    34    21    24    1
    35    16    19    1
    36     8    11    1
@<TRIPOS>MOLECULE
*****
 32 36 0 0 0
SMALL
GASTEIGER

@<TRIPOS>ATOM
      1 C         142.2086  142.5567  165.3260 C.ar    1  UNL1        0.0906
      2 C         141.5379  142.4319  166.6619 C.ar    1  UNL1        0.1496
      3 O         140.2180  143.1405  166.5858 O.2     1  UNL1       -0.4534
      4 C         140.0730  143.7033  165.2029 C.ar    1  UNL1        0.1454
      5 C         138.9797  144.4976  164.5521 C.ar    1  UNL1        0.0406
      6 C         139.1167  144.9312  163.1227 C.ar    1  UNL1        0.0395
      7 C         140.3469  144.5704  162.3441 C.ar    1  UNL1        0.1311
      8 O         140.4839  145.0040  160.9146 O.3     1  UNL1       -0.5058
      9 C         141.4403  143.7760  162.9949 C.ar    1  UNL1        0.0308
     10 C         141.3033  143.3425  164.4243 C.ar    1  UNL1        0.0421
     11 H         139.8009  145.5002  160.5081 H       1  UNL1        0.2922
     12 C         142.0901  141.7229  167.8629 C.ar    1  UNL1        0.0349
     13 C         141.6964  140.3028  168.1423 C.ar    1  UNL1        0.0061
     14 C         142.2486  139.5938  169.3433 C.ar    1  UNL1        0.0367
     15 C         143.1944  140.3050  170.2650 C.ar    1  UNL1        0.1337
     16 O         143.7466  139.5961  171.4660 O.3     1  UNL1       -0.5055
     17 C         143.5881  141.7252  169.9856 C.ar    1  UNL1        0.0367
     18 C         143.0359  142.4342  168.7846 C.ar    1  UNL1        0.0061
     19 H         143.5007  138.7089  171.6405 H       1  UNL1        0.2922
     20 C         145.0073  140.0058  164.1383 C.3     1  UNL1        0.1109
     21 N         143.6666  140.5680  164.5077 N.am    1  UNL1       -0.2991
     22 C         143.5494  141.9945  164.9566 C.2     1  UNL1        0.2490
     23 O         144.7728  142.8586  165.0361 O.2     1  UNL1       -0.2700
     24 H         142.8636  140.0008  164.4554 H       1  UNL1        0.1498
     25 C         142.6706  143.4152  162.2163 C.3     1  UNL1        0.1024
     26 N         142.7895  142.0584  161.5881 N.3     1  UNL1       -0.2648
     27 C         141.8709  140.8852  161.4157 C.3     1  UNL1        0.1014
     28 C         142.9576  140.1394  160.6995 C.3     1  UNL1        0.1244
     29 C         142.0390  138.9663  160.5272 C.3     1  UNL1        0.0620
     30 C         143.1257  138.2205  159.8110 C.3     1  UNL1        0.1446
     31 O         144.0443  139.3937  159.9834 O.3     1  UNL1       -0.3556
     32 C         143.8762  141.3126  160.8718 C.3     1  UNL1        0.1014
@<TRIPOS>BOND
     1    20    21    1
     2    21    22   am
     3    22    23    2
     4    22     1    1
     5     1     2   ar
     6     2    12    1
     7    12    13   ar
     8    13    14   ar
     9    14    15   ar
    10    15    16    1
    11    15    17   ar
    12    17    18   ar
    13     2     3   ar
    14     3     4   ar
    15     4     5   ar
    16     5     6   ar
    17     6     7   ar
    18     7     8    1
    19     7     9   ar
    20     9    25    1
    21    25    26    1
    22    26    27    1
    23    27    28    1
    24    28    29    1
    25    29    30    1
    26    30    31    1
    27    28    32    1
    28     9    10   ar
    29    10     1   ar
    30    18    12   ar
    31    10     4   ar
    32    32    26    1
    33    31    28    1
    34    21    24    1
    35    16    19    1
    36     8    11    1
@<TRIPOS>MOLECULE
*****
 32 36 0 0 0
SMALL
GASTEIGER

@<TRIPOS>ATOM
      1 C         141.1019  141.5782  164.4176 C.ar    1  UNL1        0.0906
      2 C         141.1412  140.2019  165.0128 C.ar    1  UNL1        0.1496
      3 O         142.5294  139.6610  164.8386 O.2     1  UNL1       -0.4534
      4 C         143.3481  140.7031  164.1358 C.ar    1  UNL1        0.1454
      5 C         144.7829  140.7261  163.6991 C.ar    1  UNL1        0.0406
      6 C         145.3354  141.9339  163.0022 C.ar    1  UNL1        0.0395
      7 C         144.4532  143.1188  162.7420 C.ar    1  UNL1        0.1311
      8 O         145.0058  144.3267  162.0450 O.3     1  UNL1       -0.5058
      9 C         143.0184  143.0958  163.1787 C.ar    1  UNL1        0.0308
     10 C         142.4658  141.8879  163.8756 C.ar    1  UNL1        0.0421
     11 H         145.9021  144.3411  161.7723 H       1  UNL1        0.2922
     12 C         139.9938  139.4912  165.6673 C.ar    1  UNL1        0.0349
     13 C         139.4079  140.0265  166.9402 C.ar    1  UNL1        0.0061
     14 C         138.2604  139.3158  167.5947 C.ar    1  UNL1        0.0367
     15 C         137.6989  138.0699  166.9763 C.ar    1  UNL1        0.1337
     16 O         136.5515  137.3592  167.6308 O.3     1  UNL1       -0.5055
     17 C         138.2848  137.5347  165.7035 C.ar    1  UNL1        0.0367
     18 C         139.4323  138.2453  165.0490 C.ar    1  UNL1        0.0061
     19 H         136.1855  137.6936  168.4259 H       1  UNL1        0.2922
     20 C         137.8339  143.4135  163.1130 C.3     1  UNL1        0.1109
     21 N         139.0275  142.5062  163.1583 N.am    1  UNL1       -0.2991
     22 C         139.9083  142.4854  164.3724 C.2     1  UNL1        0.2490
     23 O         139.5953  143.3720  165.5411 O.2     1  UNL1       -0.2700
     24 H         139.2329  141.9243  162.3911 H       1  UNL1        0.1498
     25 C         142.1361  144.2806  162.9185 C.3     1  UNL1        0.1024
     26 N         141.6312  144.5497  161.5319 N.3     1  UNL1       -0.2648
     27 C         141.9869  144.0590  160.1597 C.3     1  UNL1        0.1014
     28 C         140.9172  144.9301  159.5708 C.3     1  UNL1        0.1244
     29 C         141.2730  144.4394  158.1988 C.3     1  UNL1        0.0620
     30 C         140.2032  145.3105  157.6099 C.3     1  UNL1        0.1446
     31 O         139.8475  145.8012  158.9820 O.3     1  UNL1       -0.3556
     32 C         140.5615  145.4208  160.9429 C.3     1  UNL1        0.1014
@<TRIPOS>BOND
     1    20    21    1
     2    21    22   am
     3    22    23    2
     4    22     1    1
     5     1     2   ar
     6     2    12    1
     7    12    13   ar
     8    13    14   ar
     9    14    15   ar
    10    15    16    1
    11    15    17   ar
    12    17    18   ar
    13     2     3   ar
    14     3     4   ar
    15     4     5   ar
    16     5     6   ar
    17     6     7   ar
    18     7     8    1
    19     7     9   ar
    20     9    25    1
    21    25    26    1
    22    26    27    1
    23    27    28    1
    24    28    29    1
    25    29    30    1
    26    30    31    1
    27    28    32    1
    28     9    10   ar
    29    10     1   ar
    30    18    12   ar
    31    10     4   ar
    32    32    26    1
    33    31    28    1
    34    21    24    1
    35    16    19    1
    36     8    11    1
@<TRIPOS>MOLECULE
*****
 32 36 0 0 0
SMALL
GASTEIGER

@<TRIPOS>ATOM
      1 C         141.5094  140.8773  165.4850 C.ar    1  UNL1        0.0906
      2 C         141.1049  140.7784  166.9260 C.ar    1  UNL1        0.1496
      3 O         140.0483  139.7198  167.0392 O.2     1  UNL1       -0.4534
      4 C         139.7999  139.1643  165.6681 C.ar    1  UNL1        0.1454
      5 C         138.8680  138.0996  165.1703 C.ar    1  UNL1        0.0406
      6 C         138.8392  137.7503  163.7118 C.ar    1  UNL1        0.0395
      7 C         139.7422  138.4657  162.7513 C.ar    1  UNL1        0.1311
      8 O         139.7134  138.1163  161.2928 O.3     1  UNL1       -0.5058
      9 C         140.6741  139.5304  163.2491 C.ar    1  UNL1        0.0308
     10 C         140.7029  139.8798  164.7076 C.ar    1  UNL1        0.0421
     11 H         139.1313  137.4512  160.9818 H       1  UNL1        0.2922
     12 C         141.6596  141.5949  168.0555 C.ar    1  UNL1        0.0349
     13 C         140.7992  142.6198  168.7332 C.ar    1  UNL1        0.0061
     14 C         141.3539  143.4363  169.8627 C.ar    1  UNL1        0.0367
     15 C         142.7689  143.2278  170.3145 C.ar    1  UNL1        0.1337
     16 O         143.3235  144.0442  171.4440 O.3     1  UNL1       -0.5055
     17 C         143.6292  142.2028  169.6369 C.ar    1  UNL1        0.0367
     18 C         143.0746  141.3864  168.5074 C.ar    1  UNL1        0.0061
     19 H         142.7861  144.6845  171.8673 H       1  UNL1        0.2922
     20 C         143.1999  144.1588  164.0274 C.3     1  UNL1        0.1109
     21 N         142.1697  143.2261  164.5920 N.am    1  UNL1       -0.2991
     22 C         142.5397  141.8100  164.9204 C.2     1  UNL1        0.2490
     23 O         143.9398  141.3267  164.6843 O.2     1  UNL1       -0.2700
     24 H         141.2507  143.5434  164.7469 H       1  UNL1        0.1498
     25 C         141.5771  140.2458  162.2886 C.3     1  UNL1        0.1024
     26 N         141.2093  141.6114  161.7886 N.3     1  UNL1       -0.2648
     27 C         141.9095  142.6747  160.9954 C.3     1  UNL1        0.1014
     28 C         140.6891  143.5427  161.0815 C.3     1  UNL1        0.1244
     29 C         141.3894  144.6058  160.2884 C.3     1  UNL1        0.0620
     30 C         140.1690  145.4738  160.3745 C.3     1  UNL1        0.1446
     31 O         139.4688  144.4105  161.1677 O.3     1  UNL1       -0.3556
     32 C         139.9889  142.4793  161.8747 C.3     1  UNL1        0.1014
@<TRIPOS>BOND
     1    20    21    1
     2    21    22   am
     3    22    23    2
     4    22     1    1
     5     1     2   ar
     6     2    12    1
     7    12    13   ar
     8    13    14   ar
     9    14    15   ar
    10    15    16    1
    11    15    17   ar
    12    17    18   ar
    13     2     3   ar
    14     3     4   ar
    15     4     5   ar
    16     5     6   ar
    17     6     7   ar
    18     7     8    1
    19     7     9   ar
    20     9    25    1
    21    25    26    1
    22    26    27    1
    23    27    28    1
    24    28    29    1
    25    29    30    1
    26    30    31    1
    27    28    32    1
    28     9    10   ar
    29    10     1   ar
    30    18    12   ar
    31    10     4   ar
    32    32    26    1
    33    31    28    1
    34    21    24    1
    35    16    19    1
    36     8    11    1
@<TRIPOS>MOLECULE
*****
 32 36 0 0 0
SMALL
GASTEIGER

@<TRIPOS>ATOM
      1 C         140.2276  141.5570  165.6430 C.ar    1  UNL1        0.0906
      2 C         140.7341  140.9770  166.9303 C.ar    1  UNL1        0.1496
      3 O         140.4670  139.5012  166.9106 O.2     1  UNL1       -0.4534
      4 C         139.7954  139.1689  165.6111 C.ar    1  UNL1        0.1454
      5 C         139.2994  137.8737  165.0400 C.ar    1  UNL1        0.0406
      6 C         138.6555  137.8490  163.6855 C.ar    1  UNL1        0.0395
      7 C         138.5075  139.1195  162.9021 C.ar    1  UNL1        0.1311
      8 O         137.8636  139.0948  161.5476 O.3     1  UNL1       -0.5058
      9 C         139.0035  140.4148  163.4732 C.ar    1  UNL1        0.0308
     10 C         139.6474  140.4395  164.8277 C.ar    1  UNL1        0.0421
     11 H         137.5537  138.2856  161.1908 H       1  UNL1        0.2922
     12 C         141.3923  141.7392  168.0421 C.ar    1  UNL1        0.0349
     13 C         142.8459  141.5225  168.3421 C.ar    1  UNL1        0.0061
     14 C         143.5040  142.2846  169.4538 C.ar    1  UNL1        0.0367
     15 C         142.7085  143.2634  170.2656 C.ar    1  UNL1        0.1337
     16 O         143.3666  144.0255  171.3774 O.3     1  UNL1       -0.5055
     17 C         141.2549  143.4801  169.9657 C.ar    1  UNL1        0.0367
     18 C         140.5968  142.7180  168.8539 C.ar    1  UNL1        0.0061
     19 H         144.2747  143.8901  171.5648 H       1  UNL1        0.2922
     20 C         141.4741  144.9339  163.9717 C.3     1  UNL1        0.1109
     21 N         141.4114  143.4900  164.3732 N.am    1  UNL1       -0.2991
     22 C         140.2902  143.0009  165.2415 C.2     1  UNL1        0.2490
     23 O         139.2318  143.9557  165.7082 O.2     1  UNL1       -0.2700
     24 H         142.1061  142.8632  164.0669 H       1  UNL1        0.1498
     25 C         138.8555  141.6854  162.6898 C.3     1  UNL1        0.1024
     26 N         139.9454  142.1223  161.7564 N.3     1  UNL1       -0.2648
     27 C         141.2580  141.5459  161.3149 C.3     1  UNL1        0.1014
     28 C         141.4868  142.7400  160.4363 C.3     1  UNL1        0.1244
     29 C         142.7993  142.1637  159.9948 C.3     1  UNL1        0.0620
     30 C         143.0282  143.3578  159.1163 C.3     1  UNL1        0.1446
     31 O         141.7156  143.9341  159.5579 O.3     1  UNL1       -0.3556
     32 C         140.1742  143.3164  160.8779 C.3     1  UNL1        0.1014
@<TRIPOS>BOND
     1    20    21    1
     2    21    22   am
     3    22    23    2
     4    22     1    1
     5     1     2   ar
     6     2    12    1
     7    12    13   ar
     8    13    14   ar
     9    14    15   ar
    10    15    16    1
    11    15    17   ar
    12    17    18   ar
    13     2     3   ar
    14     3     4   ar
    15     4     5   ar
    16     5     6   ar
    17     6     7   ar
    18     7     8    1
    19     7     9   ar
    20     9    25    1
    21    25    26    1
    22    26    27    1
    23    27    28    1
    24    28    29    1
    25    29    30    1
    26    30    31    1
    27    28    32    1
    28     9    10   ar
    29    10     1   ar
    30    18    12   ar
    31    10     4   ar
    32    32    26    1
    33    31    28    1
    34    21    24    1
    35    16    19    1
    36     8    11    1
@<TRIPOS>MOLECULE
*****
 32 36 0 0 0
SMALL
GASTEIGER

@<TRIPOS>ATOM
      1 C         140.8723  141.5405  165.3902 C.ar    1  UNL1        0.0906
      2 C         140.8609  142.0651  166.7954 C.ar    1  UNL1        0.1496
      3 O         139.9841  143.2816  166.8288 O.2     1  UNL1       -0.4534
      4 C         139.4535  143.5089  165.4443 C.ar    1  UNL1        0.1454
      5 C         138.5415  144.5566  164.8784 C.ar    1  UNL1        0.0406
      6 C         138.1783  144.5283  163.4233 C.ar    1  UNL1        0.0395
      7 C         138.7273  143.4521  162.5342 C.ar    1  UNL1        0.1311
      8 O         138.3641  143.4238  161.0790 O.3     1  UNL1       -0.5058
      9 C         139.6393  142.4044  163.1001 C.ar    1  UNL1        0.0308
     10 C         140.0025  142.4327  164.5552 C.ar    1  UNL1        0.0421
     11 H         137.7944  144.0783  160.7255 H       1  UNL1        0.2922
     12 C         141.5972  141.4765  167.9623 C.ar    1  UNL1        0.0349
     13 C         142.7213  142.2372  168.6008 C.ar    1  UNL1        0.0061
     14 C         143.4575  141.6486  169.7676 C.ar    1  UNL1        0.0367
     15 C         143.0696  140.2994  170.2960 C.ar    1  UNL1        0.1337
     16 O         143.8059  139.7108  171.4628 O.3     1  UNL1       -0.5055
     17 C         141.9455  139.5388  169.6574 C.ar    1  UNL1        0.0367
     18 C         141.2093  140.1273  168.4906 C.ar    1  UNL1        0.0061
     19 H         144.5081  140.1860  171.8617 H       1  UNL1        0.2922
     20 C         143.8146  139.2512  164.0293 C.3     1  UNL1        0.1109
     21 N         143.0651  140.4565  164.5144 N.am    1  UNL1       -0.2991
     22 C         141.6219  140.3351  164.9051 C.2     1  UNL1        0.2490
     23 O         140.9284  139.0085  164.8107 O.2     1  UNL1       -0.2700
     24 H         143.5203  141.3272  164.5763 H       1  UNL1        0.1498
     25 C         140.1883  141.3282  162.2109 C.3     1  UNL1        0.1024
     26 N         141.2587  141.6542  161.2120 N.3     1  UNL1       -0.2648
     27 C         142.6840  142.1140  161.2966 C.3     1  UNL1        0.1014
     28 C         142.7726  142.1153  159.7992 C.3     1  UNL1        0.1244
     29 C         144.1978  142.5751  159.8840 C.3     1  UNL1        0.0620
     30 C         144.2864  142.5763  158.3866 C.3     1  UNL1        0.1446
     31 O         142.8611  142.1165  158.3019 O.3     1  UNL1       -0.3556
     32 C         141.3473  141.6555  159.7146 C.3     1  UNL1        0.1014
@<TRIPOS>BOND
     1    20    21    1
     2    21    22   am
     3    22    23    2
     4    22     1    1
     5     1     2   ar
     6     2    12    1
     7    12    13   ar
     8    13    14   ar
     9    14    15   ar
    10    15    16    1
    11    15    17   ar
    12    17    18   ar
    13     2     3   ar
    14     3     4   ar
    15     4     5   ar
    16     5     6   ar
    17     6     7   ar
    18     7     8    1
    19     7     9   ar
    20     9    25    1
    21    25    26    1
    22    26    27    1
    23    27    28    1
    24    28    29    1
    25    29    30    1
    26    30    31    1
    27    28    32    1
    28     9    10   ar
    29    10     1   ar
    30    18    12   ar
    31    10     4   ar
    32    32    26    1
    33    31    28    1
    34    21    24    1
    35    16    19    1
    36     8    11    1
@<TRIPOS>MOLECULE
*****
 32 36 0 0 0
SMALL
GASTEIGER

@<TRIPOS>ATOM
      1 C         142.8852  140.7511  165.4170 C.ar    1  UNL1        0.0906
      2 C         142.3703  141.5425  166.5826 C.ar    1  UNL1        0.1496
      3 O         142.6394  142.9933  166.3128 O.2     1  UNL1       -0.4534
      4 C         143.3205  143.0985  164.9805 C.ar    1  UNL1        0.1454
      5 C         143.8220  144.2772  164.1999 C.ar    1  UNL1        0.0406
      6 C         144.4754  144.0700  162.8657 C.ar    1  UNL1        0.0395
      7 C         144.6273  142.6842  162.3121 C.ar    1  UNL1        0.1311
      8 O         145.2807  142.4771  160.9778 O.3     1  UNL1       -0.5058
      9 C         144.1258  141.5056  163.0926 C.ar    1  UNL1        0.0308
     10 C         143.4724  141.7128  164.4268 C.ar    1  UNL1        0.0421
     11 H         145.5940  143.2133  160.4902 H       1  UNL1        0.2922
     12 C         141.7035  140.9816  167.8036 C.ar    1  UNL1        0.0349
     13 C         140.2631  141.2941  168.0818 C.ar    1  UNL1        0.0061
     14 C         139.5963  140.7332  169.3028 C.ar    1  UNL1        0.0367
     15 C         140.3700  139.8599  170.2455 C.ar    1  UNL1        0.1337
     16 O         139.7032  139.2990  171.4665 O.3     1  UNL1       -0.5055
     17 C         141.8104  139.5474  169.9672 C.ar    1  UNL1        0.0367
     18 C         142.4772  140.1083  168.7462 C.ar    1  UNL1        0.0061
     19 H         138.8034  139.4942  171.6403 H       1  UNL1        0.2922
     20 C         141.5782  137.1294  164.4549 C.3     1  UNL1        0.1109
     21 N         141.6397  138.6207  164.6042 N.am    1  UNL1       -0.2991
     22 C         142.8236  139.2598  165.2677 C.2     1  UNL1        0.2490
     23 O         143.9457  138.4076  165.7819 O.2     1  UNL1       -0.2700
     24 H         140.9032  139.1800  164.2667 H       1  UNL1        0.1498
     25 C         144.2777  140.1198  162.5390 C.3     1  UNL1        0.1024
     26 N         143.4399  139.6813  161.3746 N.3     1  UNL1       -0.2648
     27 C         143.7268  139.1325  160.0084 C.3     1  UNL1        0.1014
     28 C         142.2550  139.0612  159.7279 C.3     1  UNL1        0.1244
     29 C         142.5420  138.5124  158.3618 C.3     1  UNL1        0.0620
     30 C         141.0702  138.4411  158.0812 C.3     1  UNL1        0.1446
     31 O         140.7833  138.9899  159.4474 O.3     1  UNL1       -0.3556
     32 C         141.9680  139.6100  161.0941 C.3     1  UNL1        0.1014
@<TRIPOS>BOND
     1    20    21    1
     2    21    22   am
     3    22    23    2
     4    22     1    1
     5     1     2   ar
     6     2    12    1
     7    12    13   ar
     8    13    14   ar
     9    14    15   ar
    10    15    16    1
    11    15    17   ar
    12    17    18   ar
    13     2     3   ar
    14     3     4   ar
    15     4     5   ar
    16     5     6   ar
    17     6     7   ar
    18     7     8    1
    19     7     9   ar
    20     9    25    1
    21    25    26    1
    22    26    27    1
    23    27    28    1
    24    28    29    1
    25    29    30    1
    26    30    31    1
    27    28    32    1
    28     9    10   ar
    29    10     1   ar
    30    18    12   ar
    31    10     4   ar
    32    32    26    1
    33    31    28    1
    34    21    24    1
    35    16    19    1
    36     8    11    1
