@<TRIPOS>MOLECULE
*****
 34 39 0 0 0
SMALL
GASTEIGER

@<TRIPOS>ATOM
      1 N         143.1529  143.1560  164.5622 N.3     1  UNL1       -0.2722
      2 C         141.9699  144.0762  164.6235 C.3     1  UNL1        0.0735
      3 C         141.4732  144.7432  163.3751 C.3     1  UNL1        0.0331
      4 C         142.1593  144.4899  162.0655 C.3     1  UNL1        0.0571
      5 C         143.3423  143.5697  162.0043 C.3     1  UNL1        0.0331
      6 C         143.8391  142.9027  163.2526 C.3     1  UNL1        0.0735
      7 N         141.6625  145.1569  160.8172 N.3     1  UNL1       -0.2934
      8 H         142.4405  145.1640  160.1576 H       1  UNL1        0.1236
      9 C         140.4799  144.5940  160.0859 C.3     1  UNL1        0.1171
     10 C         139.7540  143.4031  160.6381 C.ar    1  UNL1        0.0997
     11 C         140.3093  142.0249  160.4329 C.ar    1  UNL1        0.0597
     12 C         139.5835  140.8340  160.9851 C.ar    1  UNL1        0.1943
     13 C         138.3024  141.0213  161.7425 C.ar    1  UNL1        0.2784
     14 N         137.7471  142.3996  161.9477 N.ar    1  UNL1       -0.1073
     15 N         138.4729  143.5904  161.3955 N.ar    1  UNL1       -0.1479
     16 O         137.5765  139.8303  162.2947 O.3     1  UNL1       -0.4531
     17 C         138.1318  138.4521  162.0895 C.3     1  UNL1        0.2543
     18 C         139.4130  138.2648  161.3321 C.3     1  UNL1        0.2528
     19 O         140.1388  139.4558  160.7799 O.3     1  UNL1       -0.4666
     20 C         143.6497  142.4890  165.8106 C.3     1  UNL1        0.0785
     21 O         141.6356  142.0091  171.4950 O.2     1  UNL1       -0.2653
     22 C         140.9736  141.3692  170.3108 C.ar    1  UNL1        0.2802
     23 C         139.7317  140.5492  170.4981 C.ar    1  UNL1        0.1594
     24 N         139.0697  139.9093  169.3139 N.ar    1  UNL1       -0.2374
     25 C         139.6496  140.0894  167.9424 C.ar    1  UNL1        0.0971
     26 C         138.9876  139.4495  166.7582 C.ar    1  UNL1        0.0229
     27 C         139.5676  139.6296  165.3867 C.ar    1  UNL1        0.0310
     28 C         140.8096  140.4496  165.1993 C.ar    1  UNL1        0.1377
     29 F         141.3896  140.6297  163.8277 F       1  UNL1       -0.2045
     30 C         141.4716  141.0895  166.3835 C.ar    1  UNL1        0.0255
     31 C         140.8916  140.9094  167.7550 C.ar    1  UNL1        0.0784
     32 N         141.5536  141.5493  168.9392 N.ar    1  UNL1       -0.2926
     33 C         142.7202  142.2471  168.3050 C.3     1  UNL1        0.1149
     34 C         142.6728  141.9817  166.8294 C.3     1  UNL1        0.0646
@<TRIPOS>BOND
     1    21    22    2
     2    22    23   ar
     3    23    24   ar
     4    24    25   ar
     5    25    26   ar
     6    26    27   ar
     7    27    28   ar
     8    28    29    1
     9    28    30   ar
    10    30    31   ar
    11    31    32   ar
    12    32    33    1
    13    33    34    1
    14    34    20    1
    15    20     1    1
    16     1     2    1
    17     2     3    1
    18     3     4    1
    19     4     7    1
    20     7     9    1
    21     9    10    1
    22    10    11   ar
    23    11    12   ar
    24    12    13   ar
    25    13    14   ar
    26    14    15   ar
    27    13    16    1
    28    16    17    1
    29    17    18    1
    30    18    19    1
    31     4     5    1
    32     5     6    1
    33    32    22   ar
    34     6     1    1
    35    31    25   ar
    36    15    10   ar
    37    34    30    1
    38    19    12    1
    39     7     8    1
@<TRIPOS>MOLECULE
*****
 34 39 0 0 0
SMALL
GASTEIGER

@<TRIPOS>ATOM
      1 N         138.5957  139.6024  165.1631 N.3     1  UNL1       -0.2722
      2 C         138.0883  141.0020  164.9804 C.3     1  UNL1        0.0735
      3 C         137.7222  141.4943  163.6116 C.3     1  UNL1        0.0331
      4 C         137.8636  140.5869  162.4255 C.3     1  UNL1        0.0571
      5 C         138.3710  139.1873  162.6083 C.3     1  UNL1        0.0331
      6 C         138.7370  138.6950  163.9771 C.3     1  UNL1        0.0735
      7 N         137.4975  141.0792  161.0567 N.3     1  UNL1       -0.2934
      8 H         136.6187  141.5882  161.1521 H       1  UNL1        0.1236
      9 C         138.4375  141.9752  160.3057 C.3     1  UNL1        0.1171
     10 C         139.3965  142.8524  161.0546 C.ar    1  UNL1        0.0997
     11 C         140.8368  142.4529  161.1803 C.ar    1  UNL1        0.0597
     12 C         141.7957  143.3302  161.9291 C.ar    1  UNL1        0.1943
     13 C         141.3144  144.6069  162.5523 C.ar    1  UNL1        0.2784
     14 N         139.8741  145.0064  162.4265 N.ar    1  UNL1       -0.1073
     15 N         138.9151  144.1292  161.6777 N.ar    1  UNL1       -0.1479
     16 O         142.2735  145.4842  163.3011 O.3     1  UNL1       -0.4531
     17 C         143.7138  145.0847  163.4269 C.3     1  UNL1        0.2543
     18 C         144.1951  143.8079  162.8038 C.3     1  UNL1        0.2528
     19 O         143.2361  142.9307  162.0549 O.3     1  UNL1       -0.4666
     20 C         138.9618  139.1100  166.5320 C.3     1  UNL1        0.0785
     21 O         140.5173  141.3658  171.9256 O.2     1  UNL1       -0.2653
     22 C         141.2629  141.6381  170.6528 C.ar    1  UNL1        0.2802
     23 C         142.4767  142.5192  170.6685 C.ar    1  UNL1        0.1594
     24 N         143.2223  142.7914  169.3957 N.ar    1  UNL1       -0.2374
     25 C         142.7540  142.1826  168.1073 C.ar    1  UNL1        0.0971
     26 C         143.4996  142.4549  166.8345 C.ar    1  UNL1        0.0229
     27 C         143.0313  141.8461  165.5461 C.ar    1  UNL1        0.0310
     28 C         141.8174  140.9650  165.5304 C.ar    1  UNL1        0.1377
     29 F         141.3492  140.3562  164.2420 F       1  UNL1       -0.2045
     30 C         141.0719  140.6927  166.8032 C.ar    1  UNL1        0.0255
     31 C         141.5402  141.3016  168.0916 C.ar    1  UNL1        0.0784
     32 N         140.7946  141.0293  169.3644 N.ar    1  UNL1       -0.2926
     33 C         139.6896  140.1313  168.8926 C.3     1  UNL1        0.1149
     34 C         139.8497  139.9370  167.4138 C.3     1  UNL1        0.0646
@<TRIPOS>BOND
     1    21    22    2
     2    22    23   ar
     3    23    24   ar
     4    24    25   ar
     5    25    26   ar
     6    26    27   ar
     7    27    28   ar
     8    28    29    1
     9    28    30   ar
    10    30    31   ar
    11    31    32   ar
    12    32    33    1
    13    33    34    1
    14    34    20    1
    15    20     1    1
    16     1     2    1
    17     2     3    1
    18     3     4    1
    19     4     7    1
    20     7     9    1
    21     9    10    1
    22    10    11   ar
    23    11    12   ar
    24    12    13   ar
    25    13    14   ar
    26    14    15   ar
    27    13    16    1
    28    16    17    1
    29    17    18    1
    30    18    19    1
    31     4     5    1
    32     5     6    1
    33    32    22   ar
    34     6     1    1
    35    31    25   ar
    36    15    10   ar
    37    34    30    1
    38    19    12    1
    39     7     8    1
@<TRIPOS>MOLECULE
*****
 34 39 0 0 0
SMALL
GASTEIGER

@<TRIPOS>ATOM
      1 N         139.2344  142.6816  164.7706 N.3     1  UNL1       -0.2722
      2 C         139.2576  143.2607  163.3871 C.3     1  UNL1        0.0735
      3 C         138.4927  142.5942  162.2822 C.3     1  UNL1        0.0331
      4 C         137.7047  141.3487  162.5608 C.3     1  UNL1        0.0571
      5 C         137.6814  140.7696  163.9443 C.3     1  UNL1        0.0331
      6 C         138.4463  141.4361  165.0492 C.3     1  UNL1        0.0735
      7 N         136.9398  140.6822  161.4559 N.3     1  UNL1       -0.2934
      8 H         136.8116  141.3805  160.7236 H       1  UNL1        0.1236
      9 C         137.4949  139.4563  160.7930 C.3     1  UNL1        0.1171
     10 C         138.8869  138.9969  161.1111 C.ar    1  UNL1        0.0997
     11 C         140.0612  139.6344  160.4295 C.ar    1  UNL1        0.0597
     12 C         141.4532  139.1749  160.7476 C.ar    1  UNL1        0.1943
     13 C         141.6709  138.0780  161.7473 C.ar    1  UNL1        0.2784
     14 N         140.4966  137.4405  162.4289 N.ar    1  UNL1       -0.1073
     15 N         139.1046  137.9000  162.1108 N.ar    1  UNL1       -0.1479
     16 O         143.0630  137.6186  162.0654 O.3     1  UNL1       -0.4531
     17 C         144.2373  138.2561  161.3838 C.3     1  UNL1        0.2543
     18 C         144.0196  139.3530  160.3840 C.3     1  UNL1        0.2528
     19 O         142.6275  139.8124  160.0659 O.3     1  UNL1       -0.4666
     20 C         139.9993  143.3481  165.8755 C.3     1  UNL1        0.0785
     21 O         141.2979  142.1846  171.6686 O.2     1  UNL1       -0.2653
     22 C         141.7546  141.3383  170.5174 C.ar    1  UNL1        0.2802
     23 C         142.5878  140.1166  170.7688 C.ar    1  UNL1        0.1594
     24 N         143.0445  139.2703  169.6176 N.ar    1  UNL1       -0.2374
     25 C         142.6679  139.6457  168.2150 C.ar    1  UNL1        0.0971
     26 C         143.1246  138.7994  167.0639 C.ar    1  UNL1        0.0229
     27 C         142.7481  139.1747  165.6613 C.ar    1  UNL1        0.0310
     28 C         141.9148  140.3964  165.4098 C.ar    1  UNL1        0.1377
     29 F         141.5383  140.7718  164.0072 F       1  UNL1       -0.2045
     30 C         141.4582  141.2427  166.5610 C.ar    1  UNL1        0.0255
     31 C         141.8347  140.8673  167.9636 C.ar    1  UNL1        0.0784
     32 N         141.3780  141.7136  169.1148 N.ar    1  UNL1       -0.2926
     33 C         140.5998  142.7916  168.4200 C.3     1  UNL1        0.1149
     34 C         140.6461  142.5196  166.9456 C.3     1  UNL1        0.0646
@<TRIPOS>BOND
     1    21    22    2
     2    22    23   ar
     3    23    24   ar
     4    24    25   ar
     5    25    26   ar
     6    26    27   ar
     7    27    28   ar
     8    28    29    1
     9    28    30   ar
    10    30    31   ar
    11    31    32   ar
    12    32    33    1
    13    33    34    1
    14    34    20    1
    15    20     1    1
    16     1     2    1
    17     2     3    1
    18     3     4    1
    19     4     7    1
    20     7     9    1
    21     9    10    1
    22    10    11   ar
    23    11    12   ar
    24    12    13   ar
    25    13    14   ar
    26    14    15   ar
    27    13    16    1
    28    16    17    1
    29    17    18    1
    30    18    19    1
    31     4     5    1
    32     5     6    1
    33    32    22   ar
    34     6     1    1
    35    31    25   ar
    36    15    10   ar
    37    34    30    1
    38    19    12    1
    39     7     8    1
@<TRIPOS>MOLECULE
*****
 34 39 0 0 0
SMALL
GASTEIGER

@<TRIPOS>ATOM
      1 N         138.0093  140.4968  164.2096 N.3     1  UNL1       -0.2722
      2 C         138.2038  141.9703  164.4118 C.3     1  UNL1        0.0735
      3 C         138.2751  142.8870  163.2266 C.3     1  UNL1        0.0331
      4 C         138.1518  142.3301  161.8393 C.3     1  UNL1        0.0571
      5 C         137.9573  140.8566  161.6371 C.3     1  UNL1        0.0331
      6 C         137.8861  139.9400  162.8222 C.3     1  UNL1        0.0735
      7 N         138.2231  143.2468  160.6541 N.3     1  UNL1       -0.2934
      8 H         137.9887  144.1810  160.9899 H       1  UNL1        0.1236
      9 C         139.5014  143.3731  159.8794 C.3     1  UNL1        0.1171
     10 C         140.8189  143.3383  160.5957 C.ar    1  UNL1        0.0997
     11 C         141.5100  142.0281  160.8315 C.ar    1  UNL1        0.0597
     12 C         142.8275  141.9934  161.5477 C.ar    1  UNL1        0.1943
     13 C         143.4539  143.2689  162.0282 C.ar    1  UNL1        0.2784
     14 N         142.7628  144.5791  161.7924 N.ar    1  UNL1       -0.1073
     15 N         141.4453  144.6138  161.0761 N.ar    1  UNL1       -0.1479
     16 O         144.7714  143.2341  162.7445 O.3     1  UNL1       -0.4531
     17 C         145.4625  141.9238  162.9803 C.3     1  UNL1        0.2543
     18 C         144.8362  140.6484  162.4998 C.3     1  UNL1        0.2528
     19 O         143.5186  140.6831  161.7835 O.3     1  UNL1       -0.4666
     20 C         137.9381  139.5800  165.3948 C.3     1  UNL1        0.0785
     21 O         139.8449  140.2260  171.0997 O.2     1  UNL1       -0.2653
     22 C         140.7491  139.9407  169.9374 C.ar    1  UNL1        0.2802
     23 C         142.2266  139.7982  170.1538 C.ar    1  UNL1        0.1594
     24 N         143.1308  139.5128  168.9915 N.ar    1  UNL1       -0.2374
     25 C         142.5576  139.3701  167.6128 C.ar    1  UNL1        0.0971
     26 C         143.4618  139.0847  166.4504 C.ar    1  UNL1        0.0229
     27 C         142.8886  138.9420  165.0717 C.ar    1  UNL1        0.0310
     28 C         141.4111  139.0845  164.8552 C.ar    1  UNL1        0.1377
     29 F         140.8380  138.9418  163.4764 F       1  UNL1       -0.2045
     30 C         140.5069  139.3699  166.0175 C.ar    1  UNL1        0.0255
     31 C         141.0802  139.5126  167.3963 C.ar    1  UNL1        0.0784
     32 N         140.1760  139.7979  168.5586 N.ar    1  UNL1       -0.2926
     33 C         138.8298  139.8572  167.8994 C.3     1  UNL1        0.1149
     34 C         139.0210  139.6100  166.4322 C.3     1  UNL1        0.0646
@<TRIPOS>BOND
     1    21    22    2
     2    22    23   ar
     3    23    24   ar
     4    24    25   ar
     5    25    26   ar
     6    26    27   ar
     7    27    28   ar
     8    28    29    1
     9    28    30   ar
    10    30    31   ar
    11    31    32   ar
    12    32    33    1
    13    33    34    1
    14    34    20    1
    15    20     1    1
    16     1     2    1
    17     2     3    1
    18     3     4    1
    19     4     7    1
    20     7     9    1
    21     9    10    1
    22    10    11   ar
    23    11    12   ar
    24    12    13   ar
    25    13    14   ar
    26    14    15   ar
    27    13    16    1
    28    16    17    1
    29    17    18    1
    30    18    19    1
    31     4     5    1
    32     5     6    1
    33    32    22   ar
    34     6     1    1
    35    31    25   ar
    36    15    10   ar
    37    34    30    1
    38    19    12    1
    39     7     8    1
@<TRIPOS>MOLECULE
*****
 34 39 0 0 0
SMALL
GASTEIGER

@<TRIPOS>ATOM
      1 N         141.4632  138.5089  164.1879 N.3     1  UNL1       -0.2722
      2 C         141.6479  138.7782  162.7239 C.3     1  UNL1        0.0735
      3 C         140.4877  138.6386  161.7835 C.3     1  UNL1        0.0331
      4 C         139.1428  138.2297  162.3071 C.3     1  UNL1        0.0571
      5 C         138.9581  137.9603  163.7711 C.3     1  UNL1        0.0331
      6 C         140.1183  138.1000  164.7115 C.3     1  UNL1        0.0735
      7 N         137.9826  138.0900  161.3666 N.3     1  UNL1       -0.2934
      8 H         137.2773  137.5336  161.8496 H       1  UNL1        0.1236
      9 C         137.2875  139.3133  160.8464 C.3     1  UNL1        0.1171
     10 C         137.6351  140.6646  161.3970 C.ar    1  UNL1        0.0997
     11 C         138.4712  141.6116  160.5882 C.ar    1  UNL1        0.0597
     12 C         138.8189  142.9629  161.1388 C.ar    1  UNL1        0.1943
     13 C         138.3303  143.3672  162.4981 C.ar    1  UNL1        0.2784
     14 N         137.4941  142.4203  163.3069 N.ar    1  UNL1       -0.1073
     15 N         137.1465  141.0690  162.7563 N.ar    1  UNL1       -0.1479
     16 O         138.6780  144.7186  163.0487 O.3     1  UNL1       -0.4531
     17 C         139.5142  145.6655  162.2399 C.3     1  UNL1        0.2543
     18 C         140.0027  145.2611  160.8806 C.3     1  UNL1        0.2528
     19 O         139.6550  143.9098  160.3300 O.3     1  UNL1       -0.4666
     20 C         142.6234  138.6485  165.1285 C.3     1  UNL1        0.0785
     21 O         143.6293  139.3323  171.0547 O.2     1  UNL1       -0.2653
     22 C         142.8080  140.2752  170.2262 C.ar    1  UNL1        0.2802
     23 C         142.1762  141.4775  170.8629 C.ar    1  UNL1        0.1594
     24 N         141.3549  142.4204  170.0345 N.ar    1  UNL1       -0.2374
     25 C         141.1654  142.1611  168.5693 C.ar    1  UNL1        0.0971
     26 C         140.3441  143.1040  167.7408 C.ar    1  UNL1        0.0229
     27 C         140.1546  142.8447  166.2756 C.ar    1  UNL1        0.0310
     28 C         140.7864  141.6424  165.6389 C.ar    1  UNL1        0.1377
     29 F         140.5968  141.3831  164.1737 F       1  UNL1       -0.2045
     30 C         141.6076  140.6995  166.4673 C.ar    1  UNL1        0.0255
     31 C         141.7972  140.9589  167.9326 C.ar    1  UNL1        0.0784
     32 N         142.6184  140.0159  168.7611 N.ar    1  UNL1       -0.2926
     33 C         143.0390  138.9944  167.7462 C.3     1  UNL1        0.1149
     34 C         142.4554  139.3891  166.4219 C.3     1  UNL1        0.0646
@<TRIPOS>BOND
     1    21    22    2
     2    22    23   ar
     3    23    24   ar
     4    24    25   ar
     5    25    26   ar
     6    26    27   ar
     7    27    28   ar
     8    28    29    1
     9    28    30   ar
    10    30    31   ar
    11    31    32   ar
    12    32    33    1
    13    33    34    1
    14    34    20    1
    15    20     1    1
    16     1     2    1
    17     2     3    1
    18     3     4    1
    19     4     7    1
    20     7     9    1
    21     9    10    1
    22    10    11   ar
    23    11    12   ar
    24    12    13   ar
    25    13    14   ar
    26    14    15   ar
    27    13    16    1
    28    16    17    1
    29    17    18    1
    30    18    19    1
    31     4     5    1
    32     5     6    1
    33    32    22   ar
    34     6     1    1
    35    31    25   ar
    36    15    10   ar
    37    34    30    1
    38    19    12    1
    39     7     8    1
@<TRIPOS>MOLECULE
*****
 34 39 0 0 0
SMALL
GASTEIGER

@<TRIPOS>ATOM
      1 N         144.0445  139.6125  164.2063 N.3     1  UNL1       -0.2722
      2 C         144.6696  140.9674  164.3594 C.3     1  UNL1        0.0735
      3 C         144.9031  141.8264  163.1521 C.3     1  UNL1        0.0331
      4 C         144.5115  141.3304  161.7917 C.3     1  UNL1        0.0571
      5 C         143.8865  139.9755  161.6386 C.3     1  UNL1        0.0331
      6 C         143.6530  139.1165  162.8459 C.3     1  UNL1        0.0735
      7 N         144.7450  142.1894  160.5844 N.3     1  UNL1       -0.2934
      8 H         145.0060  141.5627  159.8231 H       1  UNL1        0.1236
      9 C         143.6455  143.0676  160.0647 C.3     1  UNL1        0.1171
     10 C         142.5468  143.5159  160.9823 C.ar    1  UNL1        0.0997
     11 C         141.1999  142.8590  160.9164 C.ar    1  UNL1        0.0597
     12 C         140.1012  143.3073  161.8340 C.ar    1  UNL1        0.1943
     13 C         140.3494  144.4125  162.8174 C.ar    1  UNL1        0.2784
     14 N         141.6963  145.0693  162.8833 N.ar    1  UNL1       -0.1073
     15 N         142.7950  144.6210  161.9657 N.ar    1  UNL1       -0.1479
     16 O         139.2506  144.8607  163.7350 O.3     1  UNL1       -0.4531
     17 C         137.9037  144.2039  163.6691 C.3     1  UNL1        0.2543
     18 C         137.6555  143.0987  162.6857 C.3     1  UNL1        0.2528
     19 O         138.7543  142.6505  161.7681 O.3     1  UNL1       -0.4666
     20 C         143.8110  138.7534  165.4136 C.3     1  UNL1        0.0785
     21 O         141.9311  140.7851  170.7930 O.2     1  UNL1       -0.2653
     22 C         141.0125  140.3461  169.6914 C.ar    1  UNL1        0.2802
     23 C         139.5265  140.3960  169.8893 C.ar    1  UNL1        0.1594
     24 N         138.6079  139.9571  168.7877 N.ar    1  UNL1       -0.2374
     25 C         139.1754  139.4682  167.4881 C.ar    1  UNL1        0.0971
     26 C         138.2568  139.0293  166.3865 C.ar    1  UNL1        0.0229
     27 C         138.8243  138.5404  165.0869 C.ar    1  UNL1        0.0310
     28 C         140.3104  138.4905  164.8889 C.ar    1  UNL1        0.1377
     29 F         140.8778  138.0016  163.5893 F       1  UNL1       -0.2045
     30 C         141.2289  138.9294  165.9905 C.ar    1  UNL1        0.0255
     31 C         140.6614  139.4183  167.2902 C.ar    1  UNL1        0.0784
     32 N         141.5799  139.8573  168.3918 N.ar    1  UNL1       -0.2926
     33 C         142.9307  139.6443  167.7750 C.3     1  UNL1        0.1149
     34 C         142.7280  139.1086  166.3886 C.3     1  UNL1        0.0646
@<TRIPOS>BOND
     1    21    22    2
     2    22    23   ar
     3    23    24   ar
     4    24    25   ar
     5    25    26   ar
     6    26    27   ar
     7    27    28   ar
     8    28    29    1
     9    28    30   ar
    10    30    31   ar
    11    31    32   ar
    12    32    33    1
    13    33    34    1
    14    34    20    1
    15    20     1    1
    16     1     2    1
    17     2     3    1
    18     3     4    1
    19     4     7    1
    20     7     9    1
    21     9    10    1
    22    10    11   ar
    23    11    12   ar
    24    12    13   ar
    25    13    14   ar
    26    14    15   ar
    27    13    16    1
    28    16    17    1
    29    17    18    1
    30    18    19    1
    31     4     5    1
    32     5     6    1
    33    32    22   ar
    34     6     1    1
    35    31    25   ar
    36    15    10   ar
    37    34    30    1
    38    19    12    1
    39     7     8    1
@<TRIPOS>MOLECULE
*****
 34 39 0 0 0
SMALL
GASTEIGER

@<TRIPOS>ATOM
      1 N         142.9436  143.6924  162.3983 N.3     1  UNL1       -0.2722
      2 C         142.7893  143.4122  163.8637 C.3     1  UNL1        0.0735
      3 C         141.5802  143.9094  164.5991 C.3     1  UNL1        0.0331
      4 C         140.5253  144.6867  163.8690 C.3     1  UNL1        0.0571
      5 C         140.6795  144.9668  162.4035 C.3     1  UNL1        0.0331
      6 C         141.8887  144.4697  161.6681 C.3     1  UNL1        0.0735
      7 N         139.3161  145.1838  164.6044 N.3     1  UNL1       -0.2934
      8 H         138.9708  145.9939  164.0896 H       1  UNL1        0.1236
      9 C         138.1424  144.2746  164.8190 C.3     1  UNL1        0.1171
     10 C         138.0611  142.9690  164.0849 C.ar    1  UNL1        0.0997
     11 C         138.5811  141.7156  164.7241 C.ar    1  UNL1        0.0597
     12 C         138.4997  140.4100  163.9900 C.ar    1  UNL1        0.1943
     13 C         137.8985  140.3579  162.6168 C.ar    1  UNL1        0.2784
     14 N         137.3786  141.6113  161.9776 N.ar    1  UNL1       -0.1073
     15 N         137.4599  142.9168  162.7116 N.ar    1  UNL1       -0.1479
     16 O         137.8172  139.0522  161.8827 O.3     1  UNL1       -0.4531
     17 C         138.3372  137.7988  162.5219 C.3     1  UNL1        0.2543
     18 C         138.9384  137.8509  163.8951 C.3     1  UNL1        0.2528
     19 O         139.0197  139.1566  164.6292 O.3     1  UNL1       -0.4666
     20 C         144.1528  143.1952  161.6628 C.3     1  UNL1        0.0785
     21 O         144.2318  141.7417  155.7908 O.2     1  UNL1       -0.2653
     22 C         143.9161  140.7744  156.8930 C.ar    1  UNL1        0.2802
     23 C         143.5935  139.3461  156.5678 C.ar    1  UNL1        0.1594
     24 N         143.2779  138.3789  157.6700 N.ar    1  UNL1       -0.2374
     25 C         143.2848  138.8399  159.0973 C.ar    1  UNL1        0.0971
     26 C         142.9692  137.8727  160.1995 C.ar    1  UNL1        0.0229
     27 C         142.9761  138.3338  161.6268 C.ar    1  UNL1        0.0310
     28 C         143.2987  139.7622  161.9521 C.ar    1  UNL1        0.1377
     29 F         143.3057  140.2233  163.3794 F       1  UNL1       -0.2045
     30 C         143.6144  140.7294  160.8499 C.ar    1  UNL1        0.0255
     31 C         143.6074  140.2683  159.4225 C.ar    1  UNL1        0.0784
     32 N         143.9231  141.2355  158.3203 N.ar    1  UNL1       -0.2926
     33 C         144.1748  142.5037  159.0809 C.3     1  UNL1        0.1149
     34 C         143.9966  142.2115  160.5414 C.3     1  UNL1        0.0646
@<TRIPOS>BOND
     1    21    22    2
     2    22    23   ar
     3    23    24   ar
     4    24    25   ar
     5    25    26   ar
     6    26    27   ar
     7    27    28   ar
     8    28    29    1
     9    28    30   ar
    10    30    31   ar
    11    31    32   ar
    12    32    33    1
    13    33    34    1
    14    34    20    1
    15    20     1    1
    16     1     2    1
    17     2     3    1
    18     3     4    1
    19     4     7    1
    20     7     9    1
    21     9    10    1
    22    10    11   ar
    23    11    12   ar
    24    12    13   ar
    25    13    14   ar
    26    14    15   ar
    27    13    16    1
    28    16    17    1
    29    17    18    1
    30    18    19    1
    31     4     5    1
    32     5     6    1
    33    32    22   ar
    34     6     1    1
    35    31    25   ar
    36    15    10   ar
    37    34    30    1
    38    19    12    1
    39     7     8    1
@<TRIPOS>MOLECULE
*****
 34 39 0 0 0
SMALL
GASTEIGER

@<TRIPOS>ATOM
      1 N         139.8472  144.0773  164.4204 N.3     1  UNL1       -0.2722
      2 C         138.9903  143.9507  163.1958 C.3     1  UNL1        0.0735
      3 C         139.5232  144.3774  161.8601 C.3     1  UNL1        0.0331
      4 C         140.9130  144.9307  161.7491 C.3     1  UNL1        0.0571
      5 C         141.7699  145.0574  162.9737 C.3     1  UNL1        0.0331
      6 C         141.2370  144.6307  164.3093 C.3     1  UNL1        0.0735
      7 N         141.4459  145.3574  160.4135 N.3     1  UNL1       -0.2934
      8 H         142.1603  146.0630  160.5932 H       1  UNL1        0.1236
      9 C         142.0596  144.3447  159.4925 C.3     1  UNL1        0.1171
     10 C         142.6460  143.0818  160.0504 C.ar    1  UNL1        0.0997
     11 C         141.8565  141.8070  160.0109 C.ar    1  UNL1        0.0597
     12 C         142.4429  140.5441  160.5688 C.ar    1  UNL1        0.1943
     13 C         143.8188  140.5561  161.1662 C.ar    1  UNL1        0.2784
     14 N         144.6082  141.8309  161.2057 N.ar    1  UNL1       -0.1073
     15 N         144.0218  143.0937  160.6478 N.ar    1  UNL1       -0.1479
     16 O         144.4051  139.2931  161.7241 O.3     1  UNL1       -0.4531
     17 C         143.6156  138.0183  161.6847 C.3     1  UNL1        0.2543
     18 C         142.2398  138.0064  161.0873 C.3     1  UNL1        0.2528
     19 O         141.6534  139.2694  160.5293 O.3     1  UNL1       -0.4666
     20 C         139.3143  143.6506  165.7561 C.3     1  UNL1        0.0785
     21 O         141.7963  142.3861  171.1264 O.2     1  UNL1       -0.2653
     22 C         141.9666  141.5390  169.9002 C.ar    1  UNL1        0.2802
     23 C         142.7955  140.2903  169.9605 C.ar    1  UNL1        0.1594
     24 N         142.9658  139.4432  168.7343 N.ar    1  UNL1       -0.2374
     25 C         142.3072  139.8449  167.4479 C.ar    1  UNL1        0.0971
     26 C         142.4775  138.9978  166.2217 C.ar    1  UNL1        0.0229
     27 C         141.8189  139.3994  164.9353 C.ar    1  UNL1        0.0310
     28 C         140.9899  140.6482  164.8750 C.ar    1  UNL1        0.1377
     29 F         140.3314  141.0498  163.5886 F       1  UNL1       -0.2045
     30 C         140.8197  141.4952  166.1012 C.ar    1  UNL1        0.0255
     31 C         141.4783  141.0935  167.3876 C.ar    1  UNL1        0.0784
     32 N         141.3080  141.9406  168.6138 N.ar    1  UNL1       -0.2926
     33 C         140.4325  143.0488  168.1082 C.3     1  UNL1        0.1149
     34 C         140.1506  142.7916  166.6575 C.3     1  UNL1        0.0646
@<TRIPOS>BOND
     1    21    22    2
     2    22    23   ar
     3    23    24   ar
     4    24    25   ar
     5    25    26   ar
     6    26    27   ar
     7    27    28   ar
     8    28    29    1
     9    28    30   ar
    10    30    31   ar
    11    31    32   ar
    12    32    33    1
    13    33    34    1
    14    34    20    1
    15    20     1    1
    16     1     2    1
    17     2     3    1
    18     3     4    1
    19     4     7    1
    20     7     9    1
    21     9    10    1
    22    10    11   ar
    23    11    12   ar
    24    12    13   ar
    25    13    14   ar
    26    14    15   ar
    27    13    16    1
    28    16    17    1
    29    17    18    1
    30    18    19    1
    31     4     5    1
    32     5     6    1
    33    32    22   ar
    34     6     1    1
    35    31    25   ar
    36    15    10   ar
    37    34    30    1
    38    19    12    1
    39     7     8    1
@<TRIPOS>MOLECULE
*****
 34 39 0 0 0
SMALL
GASTEIGER

@<TRIPOS>ATOM
      1 N         143.7331  140.0176  162.3211 N.3     1  UNL1       -0.2722
      2 C         144.5616  141.2667  162.3768 C.3     1  UNL1        0.0735
      3 C         144.5812  142.2065  161.2079 C.3     1  UNL1        0.0331
      4 C         143.7722  141.8971  159.9832 C.3     1  UNL1        0.0571
      5 C         142.9437  140.6479  159.9274 C.3     1  UNL1        0.0331
      6 C         142.9242  139.7082  161.0964 C.3     1  UNL1        0.0735
      7 N         143.7917  142.8368  158.8142 N.3     1  UNL1       -0.2934
      8 H         143.7630  142.2609  157.9729 H       1  UNL1        0.1236
      9 C         142.7169  143.8729  158.6668 C.3     1  UNL1        0.1171
     10 C         141.4968  143.8168  159.5375 C.ar    1  UNL1        0.0997
     11 C         141.5438  144.3696  160.9310 C.ar    1  UNL1        0.0597
     12 C         140.3237  144.3136  161.8017 C.ar    1  UNL1        0.1943
     13 C         139.0565  143.7046  161.2788 C.ar    1  UNL1        0.2784
     14 N         139.0094  143.1517  159.8852 N.ar    1  UNL1       -0.1073
     15 N         140.2296  143.2078  159.0146 N.ar    1  UNL1       -0.1479
     16 O         137.8363  143.6485  162.1496 O.3     1  UNL1       -0.4531
     17 C         137.8834  144.2014  163.5432 C.3     1  UNL1        0.2543
     18 C         139.1506  144.8104  164.0661 C.3     1  UNL1        0.2528
     19 O         140.3707  144.8664  163.1953 O.3     1  UNL1       -0.4666
     20 C         143.7136  139.0777  163.4901 C.3     1  UNL1        0.0785
     21 O         142.3276  141.3925  168.9049 O.2     1  UNL1       -0.2653
     22 C         141.3781  140.5916  168.0640 C.ar    1  UNL1        0.2802
     23 C         139.9865  140.3216  168.5546 C.ar    1  UNL1        0.1594
     24 N         139.0370  139.5208  167.7137 N.ar    1  UNL1       -0.2374
     25 C         139.4791  138.9899  166.3822 C.ar    1  UNL1        0.0971
     26 C         138.5296  138.1891  165.5413 C.ar    1  UNL1        0.0229
     27 C         138.9716  137.6583  164.2099 C.ar    1  UNL1        0.0310
     28 C         140.3632  137.9283  163.7193 C.ar    1  UNL1        0.1377
     29 F         140.8052  137.3975  162.3878 F       1  UNL1       -0.2045
     30 C         141.3127  138.7291  164.5602 C.ar    1  UNL1        0.0255
     31 C         140.8706  139.2600  165.8917 C.ar    1  UNL1        0.0784
     32 N         141.8201  140.0608  166.7326 N.ar    1  UNL1       -0.2926
     33 C         143.0531  140.0801  165.8784 C.3     1  UNL1        0.1149
     34 C         142.7601  139.3112  164.6241 C.3     1  UNL1        0.0646
@<TRIPOS>BOND
     1    21    22    2
     2    22    23   ar
     3    23    24   ar
     4    24    25   ar
     5    25    26   ar
     6    26    27   ar
     7    27    28   ar
     8    28    29    1
     9    28    30   ar
    10    30    31   ar
    11    31    32   ar
    12    32    33    1
    13    33    34    1
    14    34    20    1
    15    20     1    1
    16     1     2    1
    17     2     3    1
    18     3     4    1
    19     4     7    1
    20     7     9    1
    21     9    10    1
    22    10    11   ar
    23    11    12   ar
    24    12    13   ar
    25    13    14   ar
    26    14    15   ar
    27    13    16    1
    28    16    17    1
    29    17    18    1
    30    18    19    1
    31     4     5    1
    32     5     6    1
    33    32    22   ar
    34     6     1    1
    35    31    25   ar
    36    15    10   ar
    37    34    30    1
    38    19    12    1
    39     7     8    1
