@<TRIPOS>MOLECULE
*****
 32 35 0 0 0
SMALL
GASTEIGER

@<TRIPOS>ATOM
      1 C         142.8209  141.6998  169.0622 C.3     1  UNL1        0.1606
      2 C         142.9371  142.1253  167.6286 C.3     1  UNL1        0.1046
      3 N         142.9601  141.0939  166.5397 N.3     1  UNL1       -0.2705
      4 C         142.8669  139.6370  166.8844 C.3     1  UNL1        0.0917
      5 C         142.7507  139.2116  168.3181 C.3     1  UNL1        0.1584
      6 O         142.7277  140.2430  169.4070 O.3     1  UNL1       -0.3508
      7 C         143.0764  141.5194  165.1059 C.3     1  UNL1        0.0610
      8 C         141.8629  141.9969  164.3646 C.3     1  UNL1        0.0375
      9 C         141.9791  142.4224  162.9309 C.3     1  UNL1        0.0950
     10 N         143.3088  142.3704  162.2385 N.pl3   1  UNL1       -0.2785
     11 C         144.5222  141.8929  162.9799 C.3     1  UNL1        0.0950
     12 C         144.4060  141.4674  164.4136 C.3     1  UNL1        0.0375
     13 C         143.4250  142.7959  160.8049 C.ar    1  UNL1        0.2163
     14 N         144.3792  142.2342  159.7931 N.ar    1  UNL1       -0.1804
     15 C         144.1513  142.9489  158.4942 C.ar    1  UNL1        0.2331
     16 N         144.8890  142.7033  157.2114 N.pl3   1  UNL1       -0.3262
     17 N         143.0562  143.9525  158.7032 N.ar    1  UNL1       -0.1354
     18 N         142.6073  143.8579  160.1313 N.ar    1  UNL1       -0.2450
     19 H         145.5959  142.0191  157.1733 H       1  UNL1        0.1452
     20 H         144.6664  143.2263  156.4076 H       1  UNL1        0.1452
     21 H         141.9002  144.3980  160.5526 H       1  UNL1        0.1919
     22 C         142.7978  142.7312  170.1511 C.3     1  UNL1        0.1730
     23 C         140.2186  143.0227  170.2618 C.3     1  UNL1        0.1742
     24 O         141.5964  143.6124  170.3242 O.3     1  UNL1       -0.3485
     25 C         142.8900  138.6057  165.7955 C.3     1  UNL1        0.0448
     26 C         141.6987  138.4332  164.9005 C.ar    1  UNL1       -0.0207
     27 C         140.3218  138.7228  165.4204 C.ar    1  UNL1       -0.0034
     28 C         139.1305  138.5504  164.5254 C.ar    1  UNL1        0.0111
     29 C         139.3161  138.0884  163.1104 C.ar    1  UNL1        0.0577
     30 CL        138.1247  137.9159  162.2154 Cl      1  UNL1       -0.0822
     31 C         140.6929  137.7988  162.5905 C.ar    1  UNL1        0.0111
     32 C         141.8843  137.9712  163.4855 C.ar    1  UNL1       -0.0034
@<TRIPOS>BOND
     1    23    24    1
     2    24    22    1
     3     1    22    1
     4     1     2    1
     5     2     3    1
     6     3     7    1
     7     7     8    1
     8     8     9    1
     9     9    10    1
    10    10    13    1
    11    13    14   ar
    12    14    15   ar
    13    15    16    1
    14    15    17   ar
    15    17    18   ar
    16    10    11    1
    17    11    12    1
    18     3     4    1
    19     4    25    1
    20    25    26    1
    21    26    27   ar
    22    27    28   ar
    23    28    29   ar
    24    29    30    1
    25    29    31   ar
    26    31    32   ar
    27     4     5    1
    28     5     6    1
    29     6     1    1
    30    12     7    1
    31    32    26   ar
    32    18    13   ar
    33    16    19    1
    34    16    20    1
    35    18    21    1
@<TRIPOS>MOLECULE
*****
 32 35 0 0 0
SMALL
GASTEIGER

@<TRIPOS>ATOM
      1 C         140.2735  140.4643  168.4865 C.3     1  UNL1        0.1606
      2 C         140.1670  141.2468  167.2113 C.3     1  UNL1        0.1046
      3 N         141.2862  141.2103  166.2132 N.3     1  UNL1       -0.2705
      4 C         142.5119  140.3915  166.4905 C.3     1  UNL1        0.0917
      5 C         142.6185  139.6090  167.7658 C.3     1  UNL1        0.1584
      6 O         141.4993  139.6455  168.7638 O.3     1  UNL1       -0.3508
      7 C         141.1796  141.9929  164.9379 C.3     1  UNL1        0.0610
      8 C         141.9380  143.2774  164.7805 C.3     1  UNL1        0.0375
      9 C         141.8315  144.0599  163.5053 C.3     1  UNL1        0.0950
     10 N         140.9665  143.5579  162.3873 N.pl3   1  UNL1       -0.2785
     11 C         140.2080  142.2733  162.5447 C.3     1  UNL1        0.0950
     12 C         140.3146  141.4908  163.8200 C.3     1  UNL1        0.0375
     13 C         140.8599  144.3404  161.1121 C.ar    1  UNL1        0.2163
     14 N         142.0020  144.7444  160.2276 N.ar    1  UNL1       -0.1804
     15 C         141.4405  145.5100  159.0663 C.ar    1  UNL1        0.2331
     16 N         142.2296  146.1025  157.9365 N.pl3   1  UNL1       -0.3262
     17 N         139.9514  145.5791  159.2330 N.ar    1  UNL1       -0.1354
     18 N         139.5926  144.8562  160.4974 N.ar    1  UNL1       -0.2450
     19 H         143.2089  146.0037  157.9152 H       1  UNL1        0.1452
     20 H         141.7682  146.5901  157.2164 H       1  UNL1        0.1452
     21 H         138.6847  144.7406  160.8602 H       1  UNL1        0.1919
     22 C         139.1543  140.5008  169.4846 C.3     1  UNL1        0.1730
     23 C         139.9686  142.7944  170.3934 C.3     1  UNL1        0.1742
     24 O         139.1306  141.5598  170.5466 O.3     1  UNL1       -0.3485
     25 C         143.6312  140.3550  165.4925 C.3     1  UNL1        0.0448
     26 C         143.4538  139.6272  164.1929 C.ar    1  UNL1       -0.0207
     27 C         142.4497  138.5180  164.0854 C.ar    1  UNL1       -0.0034
     28 C         142.2724  137.7902  162.7859 C.ar    1  UNL1        0.0111
     29 C         143.0991  138.1716  161.5938 C.ar    1  UNL1        0.0577
     30 CL        142.9217  137.4438  160.2942 Cl      1  UNL1       -0.0822
     31 C         144.1031  139.2808  161.7012 C.ar    1  UNL1        0.0111
     32 C         144.2805  140.0086  163.0008 C.ar    1  UNL1       -0.0034
@<TRIPOS>BOND
     1    23    24    1
     2    24    22    1
     3     1    22    1
     4     1     2    1
     5     2     3    1
     6     3     7    1
     7     7     8    1
     8     8     9    1
     9     9    10    1
    10    10    13    1
    11    13    14   ar
    12    14    15   ar
    13    15    16    1
    14    15    17   ar
    15    17    18   ar
    16    10    11    1
    17    11    12    1
    18     3     4    1
    19     4    25    1
    20    25    26    1
    21    26    27   ar
    22    27    28   ar
    23    28    29   ar
    24    29    30    1
    25    29    31   ar
    26    31    32   ar
    27     4     5    1
    28     5     6    1
    29     6     1    1
    30    12     7    1
    31    32    26   ar
    32    18    13   ar
    33    16    19    1
    34    16    20    1
    35    18    21    1
@<TRIPOS>MOLECULE
*****
 32 35 0 0 0
SMALL
GASTEIGER

@<TRIPOS>ATOM
      1 C         140.3170  142.3006  168.9854 C.3     1  UNL1        0.1606
      2 C         140.4393  142.8634  167.6004 C.3     1  UNL1        0.1046
      3 N         140.1485  141.9976  166.4106 N.3     1  UNL1       -0.2705
      4 C         139.7353  140.5689  166.6057 C.3     1  UNL1        0.0917
      5 C         139.6130  140.0061  167.9907 C.3     1  UNL1        0.1584
      6 O         139.9038  140.8719  169.1805 O.3     1  UNL1       -0.3508
      7 C         140.2708  142.5605  165.0255 C.3     1  UNL1        0.0610
      8 C         139.0375  142.9051  164.2444 C.3     1  UNL1        0.0375
      9 C         139.1598  143.4679  162.8594 C.3     1  UNL1        0.0950
     10 N         140.5155  143.6862  162.2555 N.pl3   1  UNL1       -0.2785
     11 C         141.7488  143.3416  163.0367 C.3     1  UNL1        0.0950
     12 C         141.6264  142.7787  164.4217 C.3     1  UNL1        0.0375
     13 C         140.6378  144.2491  160.8705 C.ar    1  UNL1        0.2163
     14 N         141.8884  144.7953  160.2481 N.ar    1  UNL1       -0.1804
     15 C         141.5545  145.2484  158.8577 C.ar    1  UNL1        0.2331
     16 N         142.5099  145.8603  157.8765 N.pl3   1  UNL1       -0.3262
     17 N         140.0974  144.9821  158.6208 N.ar    1  UNL1       -0.1354
     18 N         139.5309  144.3645  159.8648 N.ar    1  UNL1       -0.2450
     19 H         143.4526  145.9955  158.1261 H       1  UNL1        0.1452
     20 H         142.1943  146.1267  156.9828 H       1  UNL1        0.1452
     21 H         138.5966  144.0841  159.9978 H       1  UNL1        0.1919
     22 C         140.6078  143.1665  170.1752 C.3     1  UNL1        0.1730
     23 C         143.1585  142.6734  170.1536 C.3     1  UNL1        0.1742
     24 O         142.0159  143.5938  170.4656 O.3     1  UNL1       -0.3485
     25 C         139.4445  139.7030  165.4159 C.3     1  UNL1        0.0448
     26 C         140.5643  139.2490  164.5271 C.ar    1  UNL1       -0.0207
     27 C         141.9568  139.1360  165.0734 C.ar    1  UNL1       -0.0034
     28 C         143.0765  138.6819  164.1846 C.ar    1  UNL1        0.0111
     29 C         142.8039  138.3408  162.7496 C.ar    1  UNL1        0.0577
     30 CL        143.9237  137.8867  161.8608 Cl      1  UNL1       -0.0822
     31 C         141.4115  138.4537  162.2033 C.ar    1  UNL1        0.0111
     32 C         140.2916  138.9078  163.0921 C.ar    1  UNL1       -0.0034
@<TRIPOS>BOND
     1    23    24    1
     2    24    22    1
     3     1    22    1
     4     1     2    1
     5     2     3    1
     6     3     7    1
     7     7     8    1
     8     8     9    1
     9     9    10    1
    10    10    13    1
    11    13    14   ar
    12    14    15   ar
    13    15    16    1
    14    15    17   ar
    15    17    18   ar
    16    10    11    1
    17    11    12    1
    18     3     4    1
    19     4    25    1
    20    25    26    1
    21    26    27   ar
    22    27    28   ar
    23    28    29   ar
    24    29    30    1
    25    29    31   ar
    26    31    32   ar
    27     4     5    1
    28     5     6    1
    29     6     1    1
    30    12     7    1
    31    32    26   ar
    32    18    13   ar
    33    16    19    1
    34    16    20    1
    35    18    21    1
@<TRIPOS>MOLECULE
*****
 32 35 0 0 0
SMALL
GASTEIGER

@<TRIPOS>ATOM
      1 C         138.3721  139.7812  159.7519 C.3     1  UNL1        0.1606
      2 C         138.3657  140.0131  161.2338 C.3     1  UNL1        0.1046
      3 N         139.4594  139.4424  162.0870 N.3     1  UNL1       -0.2705
      4 C         140.5597  138.6398  161.4583 C.3     1  UNL1        0.0917
      5 C         140.5661  138.4080  159.9764 C.3     1  UNL1        0.1584
      6 O         139.4724  138.9787  159.1231 O.3     1  UNL1       -0.3508
      7 C         139.4529  139.6743  163.5690 C.3     1  UNL1        0.0610
      8 C         140.0465  140.9306  164.1341 C.3     1  UNL1        0.0375
      9 C         140.0401  141.1625  165.6160 C.3     1  UNL1        0.0950
     10 N         139.4400  140.1382  166.5329 N.pl3   1  UNL1       -0.2785
     11 C         138.8463  138.8819  165.9678 C.3     1  UNL1        0.0950
     12 C         138.8529  138.6500  164.4858 C.3     1  UNL1        0.0375
     13 C         139.4335  140.3701  168.0148 C.ar    1  UNL1        0.2163
     14 N         140.1934  141.4386  168.7433 N.ar    1  UNL1       -0.1804
     15 C         139.8956  141.3032  170.2072 C.ar    1  UNL1        0.2331
     16 N         140.4452  142.1681  171.3025 N.pl3   1  UNL1       -0.3262
     17 N         138.9515  140.1509  170.3834 N.ar    1  UNL1       -0.1354
     18 N         138.6659  139.5742  169.0285 N.ar    1  UNL1       -0.2450
     19 H         141.0619  142.9043  171.0858 H       1  UNL1        0.1452
     20 H         140.1893  141.9996  172.2381 H       1  UNL1        0.1452
     21 H         138.0779  138.8079  168.8379 H       1  UNL1        0.1919
     22 C         137.2783  140.3519  158.8987 C.3     1  UNL1        0.1730
     23 C         136.6057  141.2888  156.5706 C.3     1  UNL1        0.1742
     24 O         137.4049  140.3315  157.4042 O.3     1  UNL1       -0.3485
     25 C         141.6535  138.0692  162.3115 C.3     1  UNL1        0.0448
     26 C         142.7953  138.9386  162.7478 C.ar    1  UNL1       -0.0207
     27 C         143.3679  139.9542  161.8040 C.ar    1  UNL1       -0.0034
     28 C         144.5097  140.8236  162.2403 C.ar    1  UNL1        0.0111
     29 C         145.0789  140.6774  163.6204 C.ar    1  UNL1        0.0577
     30 CL        146.2208  141.5469  164.0567 Cl      1  UNL1       -0.0822
     31 C         144.5064  139.6618  164.5642 C.ar    1  UNL1        0.0111
     32 C         143.3645  138.7924  164.1279 C.ar    1  UNL1       -0.0034
@<TRIPOS>BOND
     1    23    24    1
     2    24    22    1
     3     1    22    1
     4     1     2    1
     5     2     3    1
     6     3     7    1
     7     7     8    1
     8     8     9    1
     9     9    10    1
    10    10    13    1
    11    13    14   ar
    12    14    15   ar
    13    15    16    1
    14    15    17   ar
    15    17    18   ar
    16    10    11    1
    17    11    12    1
    18     3     4    1
    19     4    25    1
    20    25    26    1
    21    26    27   ar
    22    27    28   ar
    23    28    29   ar
    24    29    30    1
    25    29    31   ar
    26    31    32   ar
    27     4     5    1
    28     5     6    1
    29     6     1    1
    30    12     7    1
    31    32    26   ar
    32    18    13   ar
    33    16    19    1
    34    16    20    1
    35    18    21    1
@<TRIPOS>MOLECULE
*****
 32 35 0 0 0
SMALL
GASTEIGER

@<TRIPOS>ATOM
      1 C         140.2205  144.4957  160.0924 C.3     1  UNL1        0.1606
      2 C         140.4701  144.3479  161.5641 C.3     1  UNL1        0.1046
      3 N         139.7266  143.3092  162.3504 N.3     1  UNL1       -0.2705
      4 C         138.7336  142.4181  161.6649 C.3     1  UNL1        0.0917
      5 C         138.4840  142.5658  160.1933 C.3     1  UNL1        0.1584
      6 O         139.2275  143.6046  159.4070 O.3     1  UNL1       -0.3508
      7 C         139.9762  143.1615  163.8221 C.3     1  UNL1        0.0610
      8 C         139.0518  143.8115  164.8085 C.3     1  UNL1        0.0375
      9 C         139.3014  143.6639  166.2802 C.3     1  UNL1        0.0950
     10 N         140.4753  142.8662  166.7655 N.pl3   1  UNL1       -0.2785
     11 C         141.3997  142.2161  165.7791 C.3     1  UNL1        0.0950
     12 C         141.1501  142.3638  164.3074 C.3     1  UNL1        0.0375
     13 C         140.7249  142.7185  168.2372 C.ar    1  UNL1        0.2163
     14 N         141.4901  141.6086  168.8947 N.ar    1  UNL1       -0.1804
     15 C         141.4912  141.8589  170.3736 C.ar    1  UNL1        0.2331
     16 N         142.1425  140.9961  171.4135 N.pl3   1  UNL1       -0.3262
     17 N         140.7266  143.1237  170.6302 N.ar    1  UNL1       -0.1354
     18 N         140.2530  143.6549  169.3098 N.ar    1  UNL1       -0.2450
     19 H         142.6245  140.1806  171.1451 H       1  UNL1        0.1452
     20 H         142.0881  141.2452  172.3644 H       1  UNL1        0.1452
     21 H         139.7251  144.4744  169.1715 H       1  UNL1        0.1919
     22 C         140.9640  145.5344  159.3062 C.3     1  UNL1        0.1730
     23 C         142.6411  143.7483  158.4419 C.3     1  UNL1        0.1742
     24 O         142.2643  145.1860  158.6446 O.3     1  UNL1       -0.3485
     25 C         137.9901  141.3793  162.4512 C.3     1  UNL1        0.0448
     26 C         138.7140  140.1745  162.9748 C.ar    1  UNL1       -0.0207
     27 C         138.5385  139.7567  164.4048 C.ar    1  UNL1       -0.0034
     28 C         139.2624  138.5519  164.9284 C.ar    1  UNL1        0.0111
     29 C         140.1620  137.7648  164.0221 C.ar    1  UNL1        0.0577
     30 CL        140.8860  136.5599  164.5458 Cl      1  UNL1       -0.0822
     31 C         140.3376  138.1825  162.5923 C.ar    1  UNL1        0.0111
     32 C         139.6136  139.3874  162.0686 C.ar    1  UNL1       -0.0034
@<TRIPOS>BOND
     1    23    24    1
     2    24    22    1
     3     1    22    1
     4     1     2    1
     5     2     3    1
     6     3     7    1
     7     7     8    1
     8     8     9    1
     9     9    10    1
    10    10    13    1
    11    13    14   ar
    12    14    15   ar
    13    15    16    1
    14    15    17   ar
    15    17    18   ar
    16    10    11    1
    17    11    12    1
    18     3     4    1
    19     4    25    1
    20    25    26    1
    21    26    27   ar
    22    27    28   ar
    23    28    29   ar
    24    29    30    1
    25    29    31   ar
    26    31    32   ar
    27     4     5    1
    28     5     6    1
    29     6     1    1
    30    12     7    1
    31    32    26   ar
    32    18    13   ar
    33    16    19    1
    34    16    20    1
    35    18    21    1
@<TRIPOS>MOLECULE
*****
 32 35 0 0 0
SMALL
GASTEIGER

@<TRIPOS>ATOM
      1 C         140.1509  140.0194  169.0206 C.3     1  UNL1        0.1606
      2 C         139.7719  139.9782  167.5699 C.3     1  UNL1        0.1046
      3 N         140.8146  139.6927  166.5301 N.3     1  UNL1       -0.2705
      4 C         142.2363  139.4484  166.9410 C.3     1  UNL1        0.0917
      5 C         142.6154  139.4896  168.3917 C.3     1  UNL1        0.1584
      6 O         141.5726  139.7751  169.4315 O.3     1  UNL1       -0.3508
      7 C         140.4355  139.6515  165.0793 C.3     1  UNL1        0.0610
      8 C         140.1654  140.9273  164.3382 C.3     1  UNL1        0.0375
      9 C         139.7863  140.8861  162.8875 C.3     1  UNL1        0.0950
     10 N         139.6773  139.5691  162.1779 N.pl3   1  UNL1       -0.2785
     11 C         139.9474  138.2932  162.9190 C.3     1  UNL1        0.0950
     12 C         140.3265  138.3344  164.3697 C.3     1  UNL1        0.0375
     13 C         139.2982  139.5279  160.7272 C.ar    1  UNL1        0.2163
     14 N         138.3069  140.4265  160.0491 N.ar    1  UNL1       -0.1804
     15 C         138.2399  140.0349  158.6027 C.ar    1  UNL1        0.2331
     16 N         137.3749  140.6721  157.5559 N.pl3   1  UNL1       -0.3262
     17 N         139.1899  138.8942  158.3868 N.ar    1  UNL1       -0.1354
     18 N         139.8439  138.5809  159.6998 N.ar    1  UNL1       -0.2450
     19 H         136.7808  141.4194  157.7963 H       1  UNL1        0.1452
     20 H         137.4011  140.3429  156.6284 H       1  UNL1        0.1452
     21 H         140.5138  137.8773  159.8593 H       1  UNL1        0.1919
     22 C         139.1082  140.3049  170.0604 C.3     1  UNL1        0.1730
     23 C         140.0274  142.6816  170.5669 C.3     1  UNL1        0.1742
     24 O         138.8840  141.7113  170.5314 O.3     1  UNL1       -0.3485
     25 C         143.2791  139.1629  165.9012 C.3     1  UNL1        0.0448
     26 C         143.6636  140.2242  164.9135 C.ar    1  UNL1       -0.0207
     27 C         143.6987  141.6635  165.3346 C.ar    1  UNL1       -0.0034
     28 C         144.0832  142.7248  164.3469 C.ar    1  UNL1        0.0111
     29 C         144.4327  142.3470  162.9380 C.ar    1  UNL1        0.0577
     30 CL        144.8173  143.4084  161.9502 Cl      1  UNL1       -0.0822
     31 C         144.3977  140.9078  162.5168 C.ar    1  UNL1        0.0111
     32 C         144.0131  139.8463  163.5045 C.ar    1  UNL1       -0.0034
@<TRIPOS>BOND
     1    23    24    1
     2    24    22    1
     3     1    22    1
     4     1     2    1
     5     2     3    1
     6     3     7    1
     7     7     8    1
     8     8     9    1
     9     9    10    1
    10    10    13    1
    11    13    14   ar
    12    14    15   ar
    13    15    16    1
    14    15    17   ar
    15    17    18   ar
    16    10    11    1
    17    11    12    1
    18     3     4    1
    19     4    25    1
    20    25    26    1
    21    26    27   ar
    22    27    28   ar
    23    28    29   ar
    24    29    30    1
    25    29    31   ar
    26    31    32   ar
    27     4     5    1
    28     5     6    1
    29     6     1    1
    30    12     7    1
    31    32    26   ar
    32    18    13   ar
    33    16    19    1
    34    16    20    1
    35    18    21    1
@<TRIPOS>MOLECULE
*****
 32 35 0 0 0
SMALL
GASTEIGER

@<TRIPOS>ATOM
      1 C         142.5655  140.1004  168.6391 C.3     1  UNL1        0.1606
      2 C         142.5126  139.6787  167.2006 C.3     1  UNL1        0.1046
      3 N         142.8668  140.6558  166.1190 N.3     1  UNL1       -0.2705
      4 C         143.2739  142.0546  166.4760 C.3     1  UNL1        0.0917
      5 C         143.3269  142.4763  167.9145 C.3     1  UNL1        0.1584
      6 O         142.9727  141.4992  168.9960 O.3     1  UNL1       -0.3508
      7 C         142.8138  140.2340  164.6805 C.3     1  UNL1        0.0610
      8 C         141.5014  140.2076  163.9545 C.3     1  UNL1        0.0375
      9 C         141.4483  139.7858  162.5161 C.3     1  UNL1        0.0950
     10 N         142.7077  139.3905  161.8034 N.pl3   1  UNL1       -0.2785
     11 C         144.0201  139.4169  162.5294 C.3     1  UNL1        0.0950
     12 C         144.0731  139.8387  163.9679 C.3     1  UNL1        0.0375
     13 C         142.6547  138.9687  160.3650 C.ar    1  UNL1        0.2163
     14 N         141.4560  138.4173  159.6515 N.ar    1  UNL1       -0.1804
     15 C         141.8515  138.1321  158.2330 C.ar    1  UNL1        0.2331
     16 N         140.9603  137.5703  157.1652 N.pl3   1  UNL1       -0.3262
     17 N         143.2946  138.5074  158.0697 N.ar    1  UNL1       -0.1354
     18 N         143.7910  139.0244  159.3873 N.ar    1  UNL1       -0.2450
     19 H         140.0220  137.3543  157.3704 H       1  UNL1        0.1452
     20 H         141.3137  137.4176  156.2591 H       1  UNL1        0.1452
     21 H         144.7025  139.3442  159.5772 H       1  UNL1        0.1919
     22 C         142.2113  139.1233  169.7207 C.3     1  UNL1        0.1730
     23 C         139.8928  140.2637  169.9921 C.3     1  UNL1        0.1742
     24 O         140.8693  139.1956  170.3867 O.3     1  UNL1       -0.3485
     25 C         143.6281  143.0317  165.3944 C.3     1  UNL1        0.0448
     26 C         142.5434  143.7018  164.6044 C.ar    1  UNL1       -0.0207
     27 C         141.1188  143.6201  165.0671 C.ar    1  UNL1       -0.0034
     28 C         140.0340  144.2902  164.2770 C.ar    1  UNL1        0.0111
     29 C         140.3737  145.0420  163.0243 C.ar    1  UNL1        0.0577
     30 CL        139.2889  145.7121  162.2342 Cl      1  UNL1       -0.0822
     31 C         141.7982  145.1238  162.5616 C.ar    1  UNL1        0.0111
     32 C         142.8831  144.4536  163.3516 C.ar    1  UNL1       -0.0034
@<TRIPOS>BOND
     1    23    24    1
     2    24    22    1
     3     1    22    1
     4     1     2    1
     5     2     3    1
     6     3     7    1
     7     7     8    1
     8     8     9    1
     9     9    10    1
    10    10    13    1
    11    13    14   ar
    12    14    15   ar
    13    15    16    1
    14    15    17   ar
    15    17    18   ar
    16    10    11    1
    17    11    12    1
    18     3     4    1
    19     4    25    1
    20    25    26    1
    21    26    27   ar
    22    27    28   ar
    23    28    29   ar
    24    29    30    1
    25    29    31   ar
    26    31    32   ar
    27     4     5    1
    28     5     6    1
    29     6     1    1
    30    12     7    1
    31    32    26   ar
    32    18    13   ar
    33    16    19    1
    34    16    20    1
    35    18    21    1
@<TRIPOS>MOLECULE
*****
 32 35 0 0 0
SMALL
GASTEIGER

@<TRIPOS>ATOM
      1 C         139.4367  143.6262  157.9425 C.3     1  UNL1        0.1606
      2 C         139.1612  142.8563  159.2000 C.3     1  UNL1        0.1046
      3 N         139.8235  143.2568  160.4849 N.3     1  UNL1       -0.2705
      4 C         140.7611  144.4273  160.5124 C.3     1  UNL1        0.0917
      5 C         141.0366  145.1972  159.2549 C.3     1  UNL1        0.1584
      6 O         140.3743  144.7967  157.9699 O.3     1  UNL1       -0.3508
      7 C         139.5480  142.4868  161.7424 C.3     1  UNL1        0.0610
      8 C         140.2508  141.1859  161.9944 C.3     1  UNL1        0.0375
      9 C         139.9754  140.4159  163.2519 C.3     1  UNL1        0.0950
     10 N         138.9971  140.9468  164.2574 N.pl3   1  UNL1       -0.2785
     11 C         138.2942  142.2478  164.0054 C.3     1  UNL1        0.0950
     12 C         138.5697  143.0178  162.7479 C.3     1  UNL1        0.0375
     13 C         138.7216  140.1769  165.5148 C.ar    1  UNL1        0.2163
     14 N         137.7239  139.0674  165.6686 N.ar    1  UNL1       -0.1804
     15 C         137.7812  138.5860  167.0881 C.ar    1  UNL1        0.2331
     16 N         136.9511  137.4858  167.6802 N.pl3   1  UNL1       -0.3262
     17 N         138.8143  139.3979  167.8117 N.ar    1  UNL1       -0.1354
     18 N         139.3955  140.3811  166.8393 N.ar    1  UNL1       -0.2450
     19 H         136.2956  137.0087  167.1216 H       1  UNL1        0.1452
     20 H         137.0617  137.2408  168.6273 H       1  UNL1        0.1452
     21 H         140.0963  141.0441  167.0359 H       1  UNL1        0.1919
     22 C         138.7744  143.2257  156.6576 C.3     1  UNL1        0.1730
     23 C         137.1771  144.3635  154.9535 C.3     1  UNL1        0.1742
     24 O         138.5313  144.2492  155.5883 O.3     1  UNL1       -0.3485
     25 C         141.4234  144.8278  161.7973 C.3     1  UNL1        0.0448
     26 C         142.5907  144.0416  162.3162 C.ar    1  UNL1       -0.0207
     27 C         143.3649  143.1497  161.3915 C.ar    1  UNL1       -0.0034
     28 C         144.5322  142.3635  161.9104 C.ar    1  UNL1        0.0111
     29 C         144.9253  142.4693  163.3541 C.ar    1  UNL1        0.0577
     30 CL        146.0927  141.6831  163.8731 Cl      1  UNL1       -0.0822
     31 C         144.1512  143.3612  164.2789 C.ar    1  UNL1        0.0111
     32 C         142.9838  144.1474  163.7599 C.ar    1  UNL1       -0.0034
@<TRIPOS>BOND
     1    23    24    1
     2    24    22    1
     3     1    22    1
     4     1     2    1
     5     2     3    1
     6     3     7    1
     7     7     8    1
     8     8     9    1
     9     9    10    1
    10    10    13    1
    11    13    14   ar
    12    14    15   ar
    13    15    16    1
    14    15    17   ar
    15    17    18   ar
    16    10    11    1
    17    11    12    1
    18     3     4    1
    19     4    25    1
    20    25    26    1
    21    26    27   ar
    22    27    28   ar
    23    28    29   ar
    24    29    30    1
    25    29    31   ar
    26    31    32   ar
    27     4     5    1
    28     5     6    1
    29     6     1    1
    30    12     7    1
    31    32    26   ar
    32    18    13   ar
    33    16    19    1
    34    16    20    1
    35    18    21    1
@<TRIPOS>MOLECULE
*****
 32 35 0 0 0
SMALL
GASTEIGER

@<TRIPOS>ATOM
      1 C         141.7515  138.7346  158.8034 C.3     1  UNL1        0.1606
      2 C         142.0088  138.8184  160.2787 C.3     1  UNL1        0.1046
      3 N         140.8626  138.9864  161.2317 N.3     1  UNL1       -0.2705
      4 C         139.4591  139.0705  160.7092 C.3     1  UNL1        0.0917
      5 C         139.2018  138.9868  159.2339 C.3     1  UNL1        0.1584
      6 O         140.3480  138.8188  158.2809 O.3     1  UNL1       -0.3508
      7 C         141.1200  139.0702  162.7071 C.3     1  UNL1        0.0610
      8 C         140.8420  137.8863  163.5853 C.3     1  UNL1        0.0375
      9 C         141.0994  137.9701  165.0607 C.3     1  UNL1        0.0950
     10 N         141.6348  139.2377  165.6579 N.pl3   1  UNL1       -0.2785
     11 C         141.9128  140.4215  164.7796 C.3     1  UNL1        0.0950
     12 C         141.6554  140.3377  163.3042 C.3     1  UNL1        0.0375
     13 C         141.8921  139.3214  167.1332 C.ar    1  UNL1        0.2163
     14 N         140.9332  139.8309  168.1679 N.ar    1  UNL1       -0.1804
     15 C         141.6020  139.7348  169.5071 C.ar    1  UNL1        0.2331
     16 N         141.0035  140.1370  170.8225 N.pl3   1  UNL1       -0.3262
     17 N         142.9744  139.1658  169.3001 N.ar    1  UNL1       -0.1354
     18 N         143.1537  138.9103  167.8329 N.ar    1  UNL1       -0.2450
     19 H         140.0901  140.5026  170.8564 H       1  UNL1        0.1452
     20 H         141.5242  140.0353  171.6518 H       1  UNL1        0.1452
     21 H         143.9581  138.5382  167.4044 H       1  UNL1        0.1919
     22 C         142.8977  138.5667  157.8505 C.3     1  UNL1        0.1730
     23 C         143.3939  137.0182  155.8241 C.3     1  UNL1        0.1742
     24 O         143.2245  137.2093  157.3023 O.3     1  UNL1       -0.3485
     25 C         138.3129  139.2385  161.6621 C.3     1  UNL1        0.0448
     26 C         138.1563  140.5182  162.4287 C.ar    1  UNL1       -0.0207
     27 C         138.0730  141.8253  161.6974 C.ar    1  UNL1       -0.0034
     28 C         137.9164  143.1050  162.4640 C.ar    1  UNL1        0.0111
     29 C         137.8430  143.0777  163.9620 C.ar    1  UNL1        0.0577
     30 CL        137.6863  144.3575  164.7286 Cl      1  UNL1       -0.0822
     31 C         137.9263  141.7708  164.6933 C.ar    1  UNL1        0.0111
     32 C         138.0829  140.4910  163.9267 C.ar    1  UNL1       -0.0034
@<TRIPOS>BOND
     1    23    24    1
     2    24    22    1
     3     1    22    1
     4     1     2    1
     5     2     3    1
     6     3     7    1
     7     7     8    1
     8     8     9    1
     9     9    10    1
    10    10    13    1
    11    13    14   ar
    12    14    15   ar
    13    15    16    1
    14    15    17   ar
    15    17    18   ar
    16    10    11    1
    17    11    12    1
    18     3     4    1
    19     4    25    1
    20    25    26    1
    21    26    27   ar
    22    27    28   ar
    23    28    29   ar
    24    29    30    1
    25    29    31   ar
    26    31    32   ar
    27     4     5    1
    28     5     6    1
    29     6     1    1
    30    12     7    1
    31    32    26   ar
    32    18    13   ar
    33    16    19    1
    34    16    20    1
    35    18    21    1
