@<TRIPOS>MOLECULE
*****
 39 44 0 0 0
SMALL
GASTEIGER

@<TRIPOS>ATOM
      1 O         142.9534  139.9742  157.0371 O.2     1  UNL1       -0.2733
      2 C         143.1057  138.5352  156.6421 C.2     1  UNL1        0.2425
      3 N         142.9446  137.4543  157.6695 N.am    1  UNL1       -0.3018
      4 H         143.0445  136.5098  157.4103 H       1  UNL1        0.1495
      5 C         142.6311  137.8125  159.0920 C.3     1  UNL1        0.1035
      6 C         143.3876  137.7751  160.3867 C.3     1  UNL1        0.0933
      7 N         142.1877  138.3190  161.1037 N.3     1  UNL1       -0.2711
      8 C         141.4310  138.3565  159.8091 C.3     1  UNL1        0.0933
      9 C         141.8742  138.6772  162.5262 C.3     1  UNL1        0.0576
     10 C         141.4078  137.6184  163.4809 C.3     1  UNL1        0.0163
     11 C         141.0943  137.9766  164.9034 C.3     1  UNL1        0.0057
     12 C         141.2472  139.3936  165.3711 C.3     1  UNL1        0.0225
     13 C         141.7136  140.4524  164.4163 C.3     1  UNL1        0.0057
     14 C         142.0271  140.0942  162.9939 C.3     1  UNL1        0.0163
     15 C         140.9338  139.7519  166.7935 C.ar    1  UNL1       -0.0193
     16 C         139.5170  139.7043  167.2842 C.ar    1  UNL1       -0.0010
     17 C         139.2035  140.0626  168.7066 C.ar    1  UNL1        0.0399
     18 C         140.3066  140.4684  169.6384 C.ar    1  UNL1        0.1764
     19 C         141.7233  140.5160  169.1478 C.ar    1  UNL1        0.1761
     20 C         142.0369  140.1577  167.7254 C.ar    1  UNL1        0.0359
     21 O         142.5947  140.9503  170.2889 O.3     1  UNL1       -0.4346
     22 C         141.7165  141.1711  171.4848 C.3     1  UNL1        0.4294
     23 O         140.3024  140.8733  171.0828 O.3     1  UNL1       -0.4346
     24 C         143.4192  138.1770  155.2196 C.3     1  UNL1        0.1747
     25 N         143.9150  136.8015  154.8843 N.pl3   1  UNL1       -0.3080
     26 H         144.8822  136.6279  154.8243 H       1  UNL1        0.1487
     27 C         142.9371  135.6905  154.6405 C.ar    1  UNL1        0.1708
     28 N         141.7412  135.7510  153.7371 N.ar    1  UNL1       -0.0621
     29 O         141.0484  134.4219  153.7955 O.2     1  UNL1       -0.3522
     30 C         141.8162  133.5399  154.7351 C.ar    1  UNL1        0.1781
     31 C         141.6032  132.1241  155.1825 C.ar    1  UNL1        0.0402
     32 C         142.5575  131.4925  156.1522 C.ar    1  UNL1        0.0071
     33 C         143.7247  132.2765  156.6744 C.ar    1  UNL1        0.0717
     34 C         143.9377  133.6923  156.2269 C.ar    1  UNL1        0.0099
     35 C         142.9835  134.3240  155.2573 C.ar    1  UNL1        0.0717
     36 C         144.6790  131.6448  157.6441 C.3     1  UNL1        0.4186
     37 F         145.6333  131.0131  158.6138 F       1  UNL1       -0.1659
     38 F         144.4082  130.3010  157.0352 F       1  UNL1       -0.1659
     39 F         144.9499  132.9886  158.2530 F       1  UNL1       -0.1659
@<TRIPOS>BOND
     1     1     2    2
     2     2    24    1
     3    24    25    1
     4    25    27    1
     5    27    28   ar
     6    28    29   ar
     7    29    30   ar
     8    30    31   ar
     9    31    32   ar
    10    32    33   ar
    11    33    36    1
    12    36    37    1
    13    36    38    1
    14    36    39    1
    15    33    34   ar
    16    34    35   ar
    17     2     3   am
    18     3     5    1
    19     5     6    1
    20     6     7    1
    21     9     7    1
    22     9    10    1
    23    10    11    1
    24    11    12    1
    25    12    15    1
    26    15    16   ar
    27    16    17   ar
    28    17    18   ar
    29    18    19   ar
    30    19    20   ar
    31    19    21    1
    32    21    22    1
    33    22    23    1
    34    12    13    1
    35    13    14    1
    36     7     8    1
    37    35    27   ar
    38     8     5    1
    39    35    30   ar
    40    14     9    1
    41    20    15   ar
    42    23    18    1
    43    25    26    1
    44     3     4    1
@<TRIPOS>MOLECULE
*****
 39 44 0 0 0
SMALL
GASTEIGER

@<TRIPOS>ATOM
      1 O         141.7540  138.5339  157.1535 O.2     1  UNL1       -0.2733
      2 C         143.0130  139.0428  156.5165 C.2     1  UNL1        0.2425
      3 N         144.0366  139.7598  157.3461 N.am    1  UNL1       -0.3018
      4 H         144.8629  140.0938  156.9280 H       1  UNL1        0.1495
      5 C         143.8010  139.9678  158.8128 C.3     1  UNL1        0.1035
      6 C         143.7549  139.0744  160.0169 C.3     1  UNL1        0.0933
      7 N         143.4679  140.2620  160.8871 N.3     1  UNL1       -0.2711
      8 C         143.5140  141.1554  159.6831 C.3     1  UNL1        0.0933
      9 C         143.2324  140.4700  162.3538 C.3     1  UNL1        0.0576
     10 C         141.8948  140.1483  162.9517 C.3     1  UNL1        0.0163
     11 C         141.6593  140.3563  164.4184 C.3     1  UNL1        0.0057
     12 C         142.7613  140.8860  165.2873 C.3     1  UNL1        0.0225
     13 C         144.0989  141.2077  164.6893 C.3     1  UNL1        0.0057
     14 C         144.3344  140.9997  163.2227 C.3     1  UNL1        0.0163
     15 C         142.5259  141.0940  166.7539 C.ar    1  UNL1       -0.0193
     16 C         143.2531  142.1849  167.4829 C.ar    1  UNL1       -0.0010
     17 C         143.0177  142.3930  168.9497 C.ar    1  UNL1        0.0399
     18 C         142.0552  141.5103  169.6874 C.ar    1  UNL1        0.1764
     19 C         141.3281  140.4194  168.9585 C.ar    1  UNL1        0.1761
     20 C         141.5634  140.2113  167.4918 C.ar    1  UNL1        0.0359
     21 O         140.4457  139.7119  169.9438 O.3     1  UNL1       -0.4346
     22 C         140.6275  140.3655  171.2816 C.3     1  UNL1        0.4294
     23 O         141.6222  141.4770  171.1232 O.3     1  UNL1       -0.4346
     24 C         143.2485  138.8348  155.0498 C.3     1  UNL1        0.1747
     25 N         143.7108  137.4995  154.5463 N.pl3   1  UNL1       -0.3080
     26 H         144.6448  137.3779  154.2598 H       1  UNL1        0.1487
     27 C         142.7500  136.3496  154.4795 C.ar    1  UNL1        0.1708
     28 N         141.4634  136.3193  153.7089 N.ar    1  UNL1       -0.0621
     29 O         140.8254  134.9790  153.9247 O.2     1  UNL1       -0.3522
     30 C         141.7176  134.1810  154.8286 C.ar    1  UNL1        0.1781
     31 C         141.6006  132.7925  155.3838 C.ar    1  UNL1        0.0402
     32 C         142.6731  132.2510  156.2819 C.ar    1  UNL1        0.0071
     33 C         143.8626  133.0981  156.6247 C.ar    1  UNL1        0.0717
     34 C         143.9796  134.4866  156.0696 C.ar    1  UNL1        0.0099
     35 C         142.9071  135.0281  155.1715 C.ar    1  UNL1        0.0717
     36 C         144.9351  132.5566  157.5229 C.3     1  UNL1        0.4186
     37 F         146.0075  132.0151  158.4210 F       1  UNL1       -0.1659
     38 F         145.3268  131.5718  156.4614 F       1  UNL1       -0.1659
     39 F         144.5434  133.5414  158.5843 F       1  UNL1       -0.1659
@<TRIPOS>BOND
     1     1     2    2
     2     2    24    1
     3    24    25    1
     4    25    27    1
     5    27    28   ar
     6    28    29   ar
     7    29    30   ar
     8    30    31   ar
     9    31    32   ar
    10    32    33   ar
    11    33    36    1
    12    36    37    1
    13    36    38    1
    14    36    39    1
    15    33    34   ar
    16    34    35   ar
    17     2     3   am
    18     3     5    1
    19     5     6    1
    20     6     7    1
    21     9     7    1
    22     9    10    1
    23    10    11    1
    24    11    12    1
    25    12    15    1
    26    15    16   ar
    27    16    17   ar
    28    17    18   ar
    29    18    19   ar
    30    19    20   ar
    31    19    21    1
    32    21    22    1
    33    22    23    1
    34    12    13    1
    35    13    14    1
    36     7     8    1
    37    35    27   ar
    38     8     5    1
    39    35    30   ar
    40    14     9    1
    41    20    15   ar
    42    23    18    1
    43    25    26    1
    44     3     4    1
@<TRIPOS>MOLECULE
*****
 39 44 0 0 0
SMALL
GASTEIGER

@<TRIPOS>ATOM
      1 O         141.9212  144.5823  159.9702 O.2     1  UNL1       -0.2733
      2 C         140.4619  144.8608  160.1774 C.2     1  UNL1        0.2425
      3 N         139.4417  143.8212  159.8190 N.am    1  UNL1       -0.3018
      4 H         138.4839  144.0040  159.9550 H       1  UNL1        0.1495
      5 C         139.8809  142.5032  159.2534 C.3     1  UNL1        0.1035
      6 C         140.5557  142.0639  157.9879 C.3     1  UNL1        0.0933
      7 N         140.5019  140.6391  158.4536 N.3     1  UNL1       -0.2711
      8 C         139.8270  141.0783  159.7192 C.3     1  UNL1        0.0933
      9 C         140.9411  139.3210  157.8880 C.3     1  UNL1        0.0576
     10 C         140.0191  138.5427  156.9970 C.3     1  UNL1        0.0163
     11 C         140.4582  137.2246  156.4314 C.3     1  UNL1        0.0057
     12 C         141.8194  136.6849  156.7569 C.3     1  UNL1        0.0225
     13 C         142.7414  137.4634  157.6480 C.3     1  UNL1        0.0057
     14 C         142.3022  138.7814  158.2135 C.3     1  UNL1        0.0163
     15 C         142.2586  135.3669  156.1914 C.ar    1  UNL1       -0.0193
     16 C         141.6048  134.8263  154.9543 C.ar    1  UNL1       -0.0010
     17 C         142.0439  133.5082  154.3887 C.ar    1  UNL1        0.0399
     18 C         143.1370  132.7309  155.0601 C.ar    1  UNL1        0.1764
     19 C         143.7909  133.2715  156.2971 C.ar    1  UNL1        0.1761
     20 C         143.3517  134.5895  156.8627 C.ar    1  UNL1        0.0359
     21 O         144.8343  132.2879  156.7375 O.3     1  UNL1       -0.4346
     22 C         144.8252  131.1394  155.7726 C.3     1  UNL1        0.4294
     23 O         143.7763  131.4132  154.7359 O.3     1  UNL1       -0.4346
     24 C         140.0228  146.1788  160.7430 C.3     1  UNL1        0.1747
     25 N         139.4905  146.2541  162.1434 N.pl3   1  UNL1       -0.3080
     26 H         139.3740  147.1291  162.5794 H       1  UNL1        0.1487
     27 C         139.1359  144.9962  162.8796 C.ar    1  UNL1        0.1708
     28 N         137.7900  144.3342  162.8965 N.ar    1  UNL1       -0.0621
     29 O         137.8872  143.1084  163.7555 O.2     1  UNL1       -0.3522
     30 C         139.2931  143.0127  164.2694 C.ar    1  UNL1        0.1781
     31 C         139.9704  142.0140  165.1604 C.ar    1  UNL1        0.0402
     32 C         141.4193  142.1820  165.5100 C.ar    1  UNL1        0.0071
     33 C         142.1910  143.3488  164.9687 C.ar    1  UNL1        0.0717
     34 C         141.5138  144.3476  164.0777 C.ar    1  UNL1        0.0099
     35 C         140.0649  144.1795  163.7281 C.ar    1  UNL1        0.0717
     36 C         143.6401  143.5168  165.3183 C.3     1  UNL1        0.4186
     37 F         145.0890  143.6848  165.6680 F       1  UNL1       -0.1659
     38 F         143.7165  144.7188  164.4243 F       1  UNL1       -0.1659
     39 F         143.5636  142.3148  166.2124 F       1  UNL1       -0.1659
@<TRIPOS>BOND
     1     1     2    2
     2     2    24    1
     3    24    25    1
     4    25    27    1
     5    27    28   ar
     6    28    29   ar
     7    29    30   ar
     8    30    31   ar
     9    31    32   ar
    10    32    33   ar
    11    33    36    1
    12    36    37    1
    13    36    38    1
    14    36    39    1
    15    33    34   ar
    16    34    35   ar
    17     2     3   am
    18     3     5    1
    19     5     6    1
    20     6     7    1
    21     9     7    1
    22     9    10    1
    23    10    11    1
    24    11    12    1
    25    12    15    1
    26    15    16   ar
    27    16    17   ar
    28    17    18   ar
    29    18    19   ar
    30    19    20   ar
    31    19    21    1
    32    21    22    1
    33    22    23    1
    34    12    13    1
    35    13    14    1
    36     7     8    1
    37    35    27   ar
    38     8     5    1
    39    35    30   ar
    40    14     9    1
    41    20    15   ar
    42    23    18    1
    43    25    26    1
    44     3     4    1
@<TRIPOS>MOLECULE
*****
 39 44 0 0 0
SMALL
GASTEIGER

@<TRIPOS>ATOM
      1 O         141.8234  139.2444  163.0543 O.2     1  UNL1       -0.2733
      2 C         140.5214  138.7781  162.4736 C.2     1  UNL1        0.2425
      3 N         140.2941  138.8446  160.9924 N.am    1  UNL1       -0.3018
      4 H         139.4395  138.5386  160.6113 H       1  UNL1        0.1495
      5 C         141.3690  139.3774  160.0920 C.3     1  UNL1        0.1035
      6 C         142.6526  138.8354  159.5365 C.3     1  UNL1        0.0933
      7 N         142.8890  140.1310  158.8185 N.3     1  UNL1       -0.2711
      8 C         141.6054  140.6731  159.3739 C.3     1  UNL1        0.0933
      9 C         143.9639  140.6637  157.9180 C.3     1  UNL1        0.0576
     10 C         144.7292  141.8930  158.3095 C.3     1  UNL1        0.0163
     11 C         145.8041  142.4258  157.4090 C.3     1  UNL1        0.0057
     12 C         146.1136  141.7293  156.1171 C.3     1  UNL1        0.0225
     13 C         145.3482  140.5000  155.7257 C.3     1  UNL1        0.0057
     14 C         144.2734  139.9673  156.6261 C.3     1  UNL1        0.0163
     15 C         147.1884  142.2620  155.2166 C.ar    1  UNL1       -0.0193
     16 C         146.8821  143.3775  154.2616 C.ar    1  UNL1       -0.0010
     17 C         147.9568  143.9103  153.3610 C.ar    1  UNL1        0.0399
     18 C         149.3379  143.3275  153.4154 C.ar    1  UNL1        0.1764
     19 C         149.6443  142.2121  154.3703 C.ar    1  UNL1        0.1761
     20 C         148.5695  141.6793  155.2709 C.ar    1  UNL1        0.0359
     21 O         151.0874  141.8399  154.2007 O.3     1  UNL1       -0.4346
     22 C         151.6730  142.7254  153.1410 C.3     1  UNL1        0.4294
     23 O         150.5918  143.6448  152.6556 O.3     1  UNL1       -0.4346
     24 C         139.4465  138.2453  163.3740 C.3     1  UNL1        0.1747
     25 N         138.5476  139.1933  164.1113 N.pl3   1  UNL1       -0.3080
     26 H         137.9276  139.7726  163.6121 H       1  UNL1        0.1487
     27 C         138.5934  139.2586  165.6092 C.ar    1  UNL1        0.1708
     28 N         137.6207  138.6117  166.5501 N.ar    1  UNL1       -0.0621
     29 O         138.0461  138.9356  167.9515 O.2     1  UNL1       -0.3522
     30 C         139.2818  139.7827  167.8768 C.ar    1  UNL1        0.1781
     31 C         140.1427  140.3980  168.9399 C.ar    1  UNL1        0.0402
     32 C         141.3418  141.2129  168.5553 C.ar    1  UNL1        0.0071
     33 C         141.6800  141.4126  167.1077 C.ar    1  UNL1        0.0717
     34 C         140.8192  140.7972  166.0446 C.ar    1  UNL1        0.0099
     35 C         139.6200  139.9823  166.4291 C.ar    1  UNL1        0.0717
     36 C         142.8792  142.2276  166.7231 C.3     1  UNL1        0.4186
     37 F         144.0783  143.0425  166.3387 F       1  UNL1       -0.1659
     38 F         142.5110  142.0867  165.2759 F       1  UNL1       -0.1659
     39 F         143.2475  142.3685  168.1704 F       1  UNL1       -0.1659
@<TRIPOS>BOND
     1     1     2    2
     2     2    24    1
     3    24    25    1
     4    25    27    1
     5    27    28   ar
     6    28    29   ar
     7    29    30   ar
     8    30    31   ar
     9    31    32   ar
    10    32    33   ar
    11    33    36    1
    12    36    37    1
    13    36    38    1
    14    36    39    1
    15    33    34   ar
    16    34    35   ar
    17     2     3   am
    18     3     5    1
    19     5     6    1
    20     6     7    1
    21     9     7    1
    22     9    10    1
    23    10    11    1
    24    11    12    1
    25    12    15    1
    26    15    16   ar
    27    16    17   ar
    28    17    18   ar
    29    18    19   ar
    30    19    20   ar
    31    19    21    1
    32    21    22    1
    33    22    23    1
    34    12    13    1
    35    13    14    1
    36     7     8    1
    37    35    27   ar
    38     8     5    1
    39    35    30   ar
    40    14     9    1
    41    20    15   ar
    42    23    18    1
    43    25    26    1
    44     3     4    1
@<TRIPOS>MOLECULE
*****
 39 44 0 0 0
SMALL
GASTEIGER

@<TRIPOS>ATOM
      1 O         143.0502  137.1799  157.8893 O.2     1  UNL1       -0.2733
      2 C         141.7868  137.3837  157.1068 C.2     1  UNL1        0.2425
      3 N         140.6499  138.1572  157.7061 N.am    1  UNL1       -0.3018
      4 H         139.8207  138.2909  157.1925 H       1  UNL1        0.1495
      5 C         140.7765  138.7270  159.0879 C.3     1  UNL1        0.1035
      6 C         140.0851  138.4945  160.3985 C.3     1  UNL1        0.0933
      7 N         140.9556  139.5329  161.0420 N.3     1  UNL1       -0.2711
      8 C         141.6470  139.7654  159.7313 C.3     1  UNL1        0.0933
      9 C         141.0821  140.1027  162.4238 C.3     1  UNL1        0.0576
     10 C         142.4008  140.0545  163.1370 C.3     1  UNL1        0.0163
     11 C         142.5274  140.6243  164.5188 C.3     1  UNL1        0.0057
     12 C         141.3353  141.2423  165.1873 C.3     1  UNL1        0.0225
     13 C         140.0166  141.2904  164.4740 C.3     1  UNL1        0.0057
     14 C         139.8900  140.7206  163.0923 C.3     1  UNL1        0.0163
     15 C         141.4617  141.8121  166.5691 C.ar    1  UNL1       -0.0193
     16 C         140.2400  142.2836  167.3006 C.ar    1  UNL1       -0.0010
     17 C         140.3663  142.8534  168.6824 C.ar    1  UNL1        0.0399
     18 C         141.7144  142.9518  169.3326 C.ar    1  UNL1        0.1764
     19 C         142.9362  142.4804  168.6012 C.ar    1  UNL1        0.1761
     20 C         142.8098  141.9105  167.2194 C.ar    1  UNL1        0.0359
     21 O         144.1233  142.7016  169.4909 O.3     1  UNL1       -0.4346
     22 C         143.6352  143.3098  170.7723 C.3     1  UNL1        0.4294
     23 O         142.1465  143.4644  170.6745 O.3     1  UNL1       -0.4346
     24 C         141.6602  136.8139  155.7251 C.3     1  UNL1        0.1747
     25 N         140.8357  135.5821  155.4943 N.pl3   1  UNL1       -0.3080
     26 H         140.0022  135.4457  156.0002 H       1  UNL1        0.1487
     27 C         141.2812  134.5581  154.4928 C.ar    1  UNL1        0.1708
     28 N         140.8929  134.5141  153.0446 N.ar    1  UNL1       -0.0621
     29 O         141.5650  133.3272  152.4205 O.2     1  UNL1       -0.3522
     30 C         142.3687  132.6377  153.4829 C.ar    1  UNL1        0.1781
     31 C         143.2375  131.4154  153.4495 C.ar    1  UNL1        0.0402
     32 C         143.9309  130.9539  154.6969 C.ar    1  UNL1        0.0071
     33 C         143.7556  131.7147  155.9777 C.ar    1  UNL1        0.0717
     34 C         142.8867  132.9370  156.0111 C.ar    1  UNL1        0.0099
     35 C         142.1933  133.3985  154.7637 C.ar    1  UNL1        0.0717
     36 C         144.4491  131.2532  157.2252 C.3     1  UNL1        0.4186
     37 F         145.1425  130.7916  158.4726 F       1  UNL1       -0.1659
     38 F         145.7200  131.8978  156.7572 F       1  UNL1       -0.1659
     39 F         143.1781  130.6086  157.6932 F       1  UNL1       -0.1659
@<TRIPOS>BOND
     1     1     2    2
     2     2    24    1
     3    24    25    1
     4    25    27    1
     5    27    28   ar
     6    28    29   ar
     7    29    30   ar
     8    30    31   ar
     9    31    32   ar
    10    32    33   ar
    11    33    36    1
    12    36    37    1
    13    36    38    1
    14    36    39    1
    15    33    34   ar
    16    34    35   ar
    17     2     3   am
    18     3     5    1
    19     5     6    1
    20     6     7    1
    21     9     7    1
    22     9    10    1
    23    10    11    1
    24    11    12    1
    25    12    15    1
    26    15    16   ar
    27    16    17   ar
    28    17    18   ar
    29    18    19   ar
    30    19    20   ar
    31    19    21    1
    32    21    22    1
    33    22    23    1
    34    12    13    1
    35    13    14    1
    36     7     8    1
    37    35    27   ar
    38     8     5    1
    39    35    30   ar
    40    14     9    1
    41    20    15   ar
    42    23    18    1
    43    25    26    1
    44     3     4    1
@<TRIPOS>MOLECULE
*****
 39 44 0 0 0
SMALL
GASTEIGER

@<TRIPOS>ATOM
      1 O         138.9972  137.0402  156.4750 O.2     1  UNL1       -0.2733
      2 C         140.2515  137.3861  155.7286 C.2     1  UNL1        0.2425
      3 N         141.4212  137.9751  156.4600 N.am    1  UNL1       -0.3018
      4 H         142.2444  138.2021  155.9701 H       1  UNL1        0.1495
      5 C         141.3366  138.2181  157.9377 C.3     1  UNL1        0.1035
      6 C         140.3031  138.7925  158.8607 C.3     1  UNL1        0.0933
      7 N         141.2170  138.5618  160.0276 N.3     1  UNL1       -0.2711
      8 C         142.2505  137.9874  159.1047 C.3     1  UNL1        0.0933
      9 C         141.1324  138.8049  161.5054 C.3     1  UNL1        0.0576
     10 C         141.5149  140.1414  162.0688 C.3     1  UNL1        0.0163
     11 C         141.4302  140.3844  163.5465 C.3     1  UNL1        0.0057
     12 C         140.9631  139.2910  164.4609 C.3     1  UNL1        0.0225
     13 C         140.5806  137.9544  163.8974 C.3     1  UNL1        0.0057
     14 C         140.6652  137.7114  162.4198 C.3     1  UNL1        0.0163
     15 C         140.8784  139.5339  165.9386 C.ar    1  UNL1       -0.0193
     16 C         139.5416  139.7245  166.5920 C.ar    1  UNL1       -0.0010
     17 C         139.4568  139.9674  168.0697 C.ar    1  UNL1        0.0399
     18 C         140.7088  140.0198  168.8942 C.ar    1  UNL1        0.1764
     19 C         142.0456  139.8293  168.2409 C.ar    1  UNL1        0.1761
     20 C         142.1304  139.5864  166.7631 C.ar    1  UNL1        0.0359
     21 O         143.0996  139.9326  169.3032 O.3     1  UNL1       -0.4346
     22 C         142.4142  140.1870  170.6130 C.3     1  UNL1        0.4294
     23 O         140.9366  140.2409  170.3602 O.3     1  UNL1       -0.4346
     24 C         140.3361  137.1430  154.2509 C.3     1  UNL1        0.1747
     25 N         140.9615  135.8818  153.7328 N.pl3   1  UNL1       -0.3080
     26 H         140.6384  135.4807  152.8938 H       1  UNL1        0.1487
     27 C         142.0793  135.2317  154.4931 C.ar    1  UNL1        0.1708
     28 N         143.3193  135.9126  154.9917 N.ar    1  UNL1       -0.0621
     29 O         144.1596  134.8883  155.6950 O.2     1  UNL1       -0.3522
     30 C         143.4389  133.5743  155.6312 C.ar    1  UNL1        0.1781
     31 C         143.7872  132.2121  156.1534 C.ar    1  UNL1        0.0402
     32 C         142.8499  131.0620  155.9329 C.ar    1  UNL1        0.0071
     33 C         141.5641  131.2743  155.1900 C.ar    1  UNL1        0.0717
     34 C         141.2157  132.6366  154.6678 C.ar    1  UNL1        0.0099
     35 C         142.1531  133.7866  154.8883 C.ar    1  UNL1        0.0717
     36 C         140.6267  130.1242  154.9695 C.3     1  UNL1        0.4186
     37 F         139.6894  128.9741  154.7490 F       1  UNL1       -0.1659
     38 F         139.6030  131.0661  154.4085 F       1  UNL1       -0.1659
     39 F         141.6504  129.1823  155.5304 F       1  UNL1       -0.1659
@<TRIPOS>BOND
     1     1     2    2
     2     2    24    1
     3    24    25    1
     4    25    27    1
     5    27    28   ar
     6    28    29   ar
     7    29    30   ar
     8    30    31   ar
     9    31    32   ar
    10    32    33   ar
    11    33    36    1
    12    36    37    1
    13    36    38    1
    14    36    39    1
    15    33    34   ar
    16    34    35   ar
    17     2     3   am
    18     3     5    1
    19     5     6    1
    20     6     7    1
    21     9     7    1
    22     9    10    1
    23    10    11    1
    24    11    12    1
    25    12    15    1
    26    15    16   ar
    27    16    17   ar
    28    17    18   ar
    29    18    19   ar
    30    19    20   ar
    31    19    21    1
    32    21    22    1
    33    22    23    1
    34    12    13    1
    35    13    14    1
    36     7     8    1
    37    35    27   ar
    38     8     5    1
    39    35    30   ar
    40    14     9    1
    41    20    15   ar
    42    23    18    1
    43    25    26    1
    44     3     4    1
@<TRIPOS>MOLECULE
*****
 39 44 0 0 0
SMALL
GASTEIGER

@<TRIPOS>ATOM
      1 O         139.0050  138.9409  156.3319 O.2     1  UNL1       -0.2733
      2 C         138.3210  140.1241  155.7138 C.2     1  UNL1        0.2425
      3 N         137.8931  141.2766  156.5732 N.am    1  UNL1       -0.3018
      4 H         137.4441  142.0532  156.1675 H       1  UNL1        0.1495
      5 C         138.1491  141.2457  158.0509 C.3     1  UNL1        0.1035
      6 C         138.7234  142.2078  159.0482 C.3     1  UNL1        0.0933
      7 N         138.5112  141.2020  160.1407 N.3     1  UNL1       -0.2711
      8 C         137.9370  140.2399  159.1434 C.3     1  UNL1        0.0933
      9 C         138.7673  141.1712  161.6183 C.3     1  UNL1        0.0576
     10 C         139.9689  140.4525  162.1564 C.3     1  UNL1        0.0163
     11 C         140.2250  140.4216  163.6341 C.3     1  UNL1        0.0057
     12 C         139.2795  141.1096  164.5737 C.3     1  UNL1        0.0225
     13 C         138.0779  141.8283  164.0354 C.3     1  UNL1        0.0057
     14 C         137.8218  141.8591  162.5579 C.3     1  UNL1        0.0163
     15 C         139.5354  141.0788  166.0513 C.ar    1  UNL1       -0.0193
     16 C         139.0451  139.9240  166.8735 C.ar    1  UNL1       -0.0010
     17 C         139.3010  139.8931  168.3512 C.ar    1  UNL1        0.0399
     18 C         140.0473  141.0171  169.0067 C.ar    1  UNL1        0.1764
     19 C         140.5377  142.1719  168.1845 C.ar    1  UNL1        0.1761
     20 C         140.2817  142.2027  166.7068 C.ar    1  UNL1        0.0359
     21 O         141.2395  143.1289  169.1018 O.3     1  UNL1       -0.4346
     22 C         141.1829  142.5656  170.4909 C.3     1  UNL1        0.4294
     23 O         140.4461  141.2604  170.4321 O.3     1  UNL1       -0.4346
     24 C         138.0649  140.1549  154.2361 C.3     1  UNL1        0.1747
     25 N         136.7903  139.5888  153.6838 N.pl3   1  UNL1       -0.3080
     26 H         136.7695  138.6664  153.3404 H       1  UNL1        0.1487
     27 C         135.5474  140.4281  153.6549 C.ar    1  UNL1        0.1708
     28 N         135.2273  141.4953  152.6506 N.ar    1  UNL1       -0.0621
     29 O         133.8885  142.0742  153.0003 O.2     1  UNL1       -0.3522
     30 C         133.3810  141.3648  154.2206 C.ar    1  UNL1        0.1781
     31 C         132.1179  141.5138  155.0157 C.ar    1  UNL1        0.0402
     32 C         131.8800  140.6454  156.2153 C.ar    1  UNL1        0.0071
     33 C         132.9053  139.6280  156.6199 C.ar    1  UNL1        0.0717
     34 C         134.1684  139.4790  155.8249 C.ar    1  UNL1        0.0099
     35 C         134.4063  140.3474  154.6252 C.ar    1  UNL1        0.0717
     36 C         132.6673  138.7596  157.8197 C.3     1  UNL1        0.4186
     37 F         132.4294  137.8912  159.0194 F       1  UNL1       -0.1659
     38 F         131.4805  138.1445  157.1391 F       1  UNL1       -0.1659
     39 F         133.8541  139.3746  158.5002 F       1  UNL1       -0.1659
@<TRIPOS>BOND
     1     1     2    2
     2     2    24    1
     3    24    25    1
     4    25    27    1
     5    27    28   ar
     6    28    29   ar
     7    29    30   ar
     8    30    31   ar
     9    31    32   ar
    10    32    33   ar
    11    33    36    1
    12    36    37    1
    13    36    38    1
    14    36    39    1
    15    33    34   ar
    16    34    35   ar
    17     2     3   am
    18     3     5    1
    19     5     6    1
    20     6     7    1
    21     9     7    1
    22     9    10    1
    23    10    11    1
    24    11    12    1
    25    12    15    1
    26    15    16   ar
    27    16    17   ar
    28    17    18   ar
    29    18    19   ar
    30    19    20   ar
    31    19    21    1
    32    21    22    1
    33    22    23    1
    34    12    13    1
    35    13    14    1
    36     7     8    1
    37    35    27   ar
    38     8     5    1
    39    35    30   ar
    40    14     9    1
    41    20    15   ar
    42    23    18    1
    43    25    26    1
    44     3     4    1
@<TRIPOS>MOLECULE
*****
 39 44 0 0 0
SMALL
GASTEIGER

@<TRIPOS>ATOM
      1 O         138.9325  141.0773  159.4386 O.2     1  UNL1       -0.2733
      2 C         139.1606  140.0460  160.5037 C.2     1  UNL1        0.2425
      3 N         140.5257  139.4546  160.6951 N.am    1  UNL1       -0.3018
      4 H         140.6754  138.7778  161.3942 H       1  UNL1        0.1495
      5 C         141.6628  139.8945  159.8213 C.3     1  UNL1        0.1035
      6 C         143.1268  140.1443  160.0314 C.3     1  UNL1        0.0933
      7 N         143.2708  140.5167  158.5855 N.3     1  UNL1       -0.2711
      8 C         141.8067  140.2670  158.3753 C.3     1  UNL1        0.0933
      9 C         144.4079  140.9566  157.7117 C.3     1  UNL1        0.0576
     10 C         145.2240  142.1568  158.0904 C.3     1  UNL1        0.0163
     11 C         146.3611  142.5967  157.2166 C.3     1  UNL1        0.0057
     12 C         146.6821  141.8364  155.9641 C.3     1  UNL1        0.0225
     13 C         145.8659  140.6362  155.5854 C.3     1  UNL1        0.0057
     14 C         144.7289  140.1963  156.4591 C.3     1  UNL1        0.0163
     15 C         147.8191  142.2762  155.0903 C.ar    1  UNL1       -0.0193
     16 C         147.5717  143.2350  153.9635 C.ar    1  UNL1       -0.0010
     17 C         148.7087  143.6749  153.0895 C.ar    1  UNL1        0.0399
     18 C         150.0931  143.1560  153.3424 C.ar    1  UNL1        0.1764
     19 C         150.3406  142.1972  154.4691 C.ar    1  UNL1        0.1761
     20 C         149.2036  141.7573  155.3430 C.ar    1  UNL1        0.0359
     21 O         151.8016  141.8575  154.4762 O.3     1  UNL1       -0.4346
     22 C         152.4571  142.6064  153.3539 C.3     1  UNL1        0.4294
     23 O         151.4012  143.4089  152.6531 O.3     1  UNL1       -0.4346
     24 C         138.0235  139.6061  161.3775 C.3     1  UNL1        0.1747
     25 N         137.1647  140.6280  162.0620 N.pl3   1  UNL1       -0.3080
     26 H         136.2078  140.4486  162.2080 H       1  UNL1        0.1487
     27 C         137.7640  141.9232  162.5238 C.ar    1  UNL1        0.1708
     28 N         137.7252  143.2266  161.7824 N.ar    1  UNL1       -0.0621
     29 O         138.4445  144.2513  162.6086 O.2     1  UNL1       -0.3522
     30 C         138.9278  143.5812  163.8606 C.ar    1  UNL1        0.1781
     31 C         139.6965  144.0954  165.0416 C.ar    1  UNL1        0.0402
     32 C         140.0445  143.1707  166.1702 C.ar    1  UNL1        0.0071
     33 C         139.6239  141.7318  166.1177 C.ar    1  UNL1        0.0717
     34 C         138.8552  141.2177  164.9368 C.ar    1  UNL1        0.0099
     35 C         138.5072  142.1424  163.8082 C.ar    1  UNL1        0.0717
     36 C         139.9720  140.8071  167.2464 C.3     1  UNL1        0.4186
     37 F         140.3201  139.8824  168.3750 F       1  UNL1       -0.1659
     38 F         139.8259  139.6305  166.3275 F       1  UNL1       -0.1659
     39 F         140.1181  141.9836  168.1653 F       1  UNL1       -0.1659
@<TRIPOS>BOND
     1     1     2    2
     2     2    24    1
     3    24    25    1
     4    25    27    1
     5    27    28   ar
     6    28    29   ar
     7    29    30   ar
     8    30    31   ar
     9    31    32   ar
    10    32    33   ar
    11    33    36    1
    12    36    37    1
    13    36    38    1
    14    36    39    1
    15    33    34   ar
    16    34    35   ar
    17     2     3   am
    18     3     5    1
    19     5     6    1
    20     6     7    1
    21     9     7    1
    22     9    10    1
    23    10    11    1
    24    11    12    1
    25    12    15    1
    26    15    16   ar
    27    16    17   ar
    28    17    18   ar
    29    18    19   ar
    30    19    20   ar
    31    19    21    1
    32    21    22    1
    33    22    23    1
    34    12    13    1
    35    13    14    1
    36     7     8    1
    37    35    27   ar
    38     8     5    1
    39    35    30   ar
    40    14     9    1
    41    20    15   ar
    42    23    18    1
    43    25    26    1
    44     3     4    1
@<TRIPOS>MOLECULE
*****
 39 44 0 0 0
SMALL
GASTEIGER

@<TRIPOS>ATOM
      1 O         142.6046  141.7542  162.8821 O.2     1  UNL1       -0.2733
      2 C         141.5201  142.7579  162.6246 C.2     1  UNL1        0.2425
      3 N         140.6392  142.6177  161.4186 N.am    1  UNL1       -0.3018
      4 H         139.9274  143.2765  161.2496 H       1  UNL1        0.1495
      5 C         140.8429  141.4737  160.4701 C.3     1  UNL1        0.1035
      6 C         141.2738  141.3462  159.0390 C.3     1  UNL1        0.0933
      7 N         141.1310  139.8557  159.1287 N.3     1  UNL1       -0.2711
      8 C         140.7001  139.9831  160.5599 C.3     1  UNL1        0.0933
      9 C         141.3347  138.7117  158.1802 C.3     1  UNL1        0.0576
     10 C         140.2100  138.2614  157.2957 C.3     1  UNL1        0.0163
     11 C         140.4137  137.1173  156.3472 C.3     1  UNL1        0.0057
     12 C         141.7421  136.4236  156.2831 C.3     1  UNL1        0.0225
     13 C         142.8668  136.8740  157.1677 C.3     1  UNL1        0.0057
     14 C         142.6631  138.0179  158.1162 C.3     1  UNL1        0.0163
     15 C         141.9459  135.2796  155.3347 C.ar    1  UNL1       -0.0193
     16 C         141.3700  135.3409  153.9509 C.ar    1  UNL1       -0.0010
     17 C         141.5738  134.1969  153.0024 C.ar    1  UNL1        0.0399
     18 C         142.3535  132.9917  153.4375 C.ar    1  UNL1        0.1764
     19 C         142.9294  132.9303  154.8212 C.ar    1  UNL1        0.1761
     20 C         142.7256  134.0743  155.7698 C.ar    1  UNL1        0.0359
     21 O         143.6474  131.6214  154.9668 O.3     1  UNL1       -0.4346
     22 C         143.5152  130.8738  153.6732 C.3     1  UNL1        0.4294
     23 O         142.7155  131.7206  152.7280 O.3     1  UNL1       -0.4346
     24 C         141.3164  143.9020  163.5731 C.3     1  UNL1        0.1747
     25 N         140.1429  143.9016  164.5076 N.pl3   1  UNL1       -0.3080
     26 H         139.4564  144.6036  164.4360 H       1  UNL1        0.1487
     27 C         140.0155  142.8317  165.5512 C.ar    1  UNL1        0.1708
     28 N         140.3340  142.9801  167.0094 N.ar    1  UNL1       -0.0621
     29 O         140.0626  141.6656  167.6792 O.2     1  UNL1       -0.3522
     30 C         139.5763  140.7049  166.6348 C.ar    1  UNL1        0.1781
     31 C         139.1563  139.2670  166.7116 C.ar    1  UNL1        0.0402
     32 C         138.7072  138.5498  165.4731 C.ar    1  UNL1        0.0071
     33 C         138.6781  139.2705  164.1579 C.ar    1  UNL1        0.0717
     34 C         139.0982  140.7084  164.0812 C.ar    1  UNL1        0.0099
     35 C         139.5473  141.4256  165.3196 C.ar    1  UNL1        0.0717
     36 C         138.2290  138.5532  162.9194 C.3     1  UNL1        0.4186
     37 F         137.7799  137.8359  161.6810 F       1  UNL1       -0.1659
     38 F         137.6416  139.8292  162.3933 F       1  UNL1       -0.1659
     39 F         138.8164  137.2772  163.4454 F       1  UNL1       -0.1659
@<TRIPOS>BOND
     1     1     2    2
     2     2    24    1
     3    24    25    1
     4    25    27    1
     5    27    28   ar
     6    28    29   ar
     7    29    30   ar
     8    30    31   ar
     9    31    32   ar
    10    32    33   ar
    11    33    36    1
    12    36    37    1
    13    36    38    1
    14    36    39    1
    15    33    34   ar
    16    34    35   ar
    17     2     3   am
    18     3     5    1
    19     5     6    1
    20     6     7    1
    21     9     7    1
    22     9    10    1
    23    10    11    1
    24    11    12    1
    25    12    15    1
    26    15    16   ar
    27    16    17   ar
    28    17    18   ar
    29    18    19   ar
    30    19    20   ar
    31    19    21    1
    32    21    22    1
    33    22    23    1
    34    12    13    1
    35    13    14    1
    36     7     8    1
    37    35    27   ar
    38     8     5    1
    39    35    30   ar
    40    14     9    1
    41    20    15   ar
    42    23    18    1
    43    25    26    1
    44     3     4    1
