@<TRIPOS>MOLECULE
*****
 35 39 0 0 0
SMALL
GASTEIGER

@<TRIPOS>ATOM
      1 N         138.8442  139.8506  163.9873 N.3     1  UNL1       -0.2713
      2 C         137.7375  140.8299  164.2447 C.3     1  UNL1        0.0749
      3 C         137.4868  141.9494  163.2783 C.3     1  UNL1        0.0485
      4 C         138.3429  142.0897  162.0546 C.3     1  UNL1        0.1096
      5 O         137.4224  143.2587  161.8640 O.3     1  UNL1       -0.3826
      6 C         139.4496  141.1104  161.7972 C.3     1  UNL1        0.0485
      7 C         139.7003  139.9909  162.7635 C.3     1  UNL1        0.0749
      8 H         136.7930  143.2981  162.6010 H       1  UNL1        0.2107
      9 C         138.8792  142.6359  160.7646 C.ar    1  UNL1        0.0015
     10 C         138.3965  142.0816  159.4571 C.ar    1  UNL1       -0.0024
     11 C         138.9329  142.6279  158.1671 C.ar    1  UNL1       -0.0047
     12 C         139.9519  143.7283  158.1847 C.ar    1  UNL1       -0.0213
     13 C         140.4347  144.2827  159.4924 C.ar    1  UNL1        0.0032
     14 C         139.8983  143.7364  160.7822 C.ar    1  UNL1       -0.0042
     15 C         141.4538  145.3832  159.5100 C.3     1  UNL1        0.1683
     16 O         141.9901  145.9294  158.2200 O.3     1  UNL1       -0.3487
     17 C         141.5074  145.3751  156.9125 C.3     1  UNL1        0.1473
     18 C         140.4884  144.2746  156.8949 C.3     1  UNL1        0.0582
     19 C         139.8611  137.5186  164.5144 C.3     1  UNL1        0.0203
     20 C         139.0948  138.7311  164.9537 C.3     1  UNL1        0.0888
     21 C         138.5793  138.8240  166.3592 C.3     1  UNL1        0.1472
     22 O         137.3535  138.0583  166.7606 O.3     1  UNL1       -0.3787
     23 H         137.1578  138.2282  167.6953 H       1  UNL1        0.2108
     24 C         139.2895  139.6827  167.3634 C.ar    1  UNL1        0.0053
     25 C         138.6568  139.9590  168.6950 C.ar    1  UNL1       -0.0007
     26 C         139.3670  140.8176  169.6991 C.ar    1  UNL1        0.0141
     27 C         140.7100  141.3999  169.3716 C.ar    1  UNL1        0.0462
     28 C         141.3428  141.1236  168.0400 C.ar    1  UNL1       -0.0085
     29 C         140.6326  140.2649  167.0359 C.ar    1  UNL1       -0.0049
     30 C         142.6858  141.7058  167.7125 C.3     1  UNL1        0.0372
     31 C         143.3961  142.5644  168.7167 C.3     1  UNL1        0.0901
     32 C         142.7633  142.8408  170.0483 C.2     1  UNL1        0.2264
     33 O         143.4735  143.6994  171.0524 O.2     1  UNL1       -0.2748
     34 N         141.4203  142.2585  170.3758 N.am    1  UNL1       -0.2842
     35 H         141.0049  142.4399  171.2498 H       1  UNL1        0.1548
@<TRIPOS>BOND
     1    19    20    1
     2    20    21    1
     3    21    22    1
     4    21    24    1
     5    24    25   ar
     6    25    26   ar
     7    26    27   ar
     8    27    28   ar
     9    28    29   ar
    10    28    30    1
    11    30    31    1
    12    31    32    1
    13    32    33    2
    14    32    34   am
    15    20     1    1
    16     1     2    1
    17     2     3    1
    18     3     4    1
    19     4     5    1
    20     4     9    1
    21     9    10   ar
    22    10    11   ar
    23    11    12   ar
    24    12    13   ar
    25    13    14   ar
    26    13    15    1
    27    15    16    1
    28    16    17    1
    29    17    18    1
    30     4     6    1
    31     6     7    1
    32    29    24   ar
    33     7     1    1
    34    34    27    1
    35    14     9   ar
    36    18    12    1
    37    22    23    1
    38    34    35    1
    39     5     8    1
@<TRIPOS>MOLECULE
*****
 35 39 0 0 0
SMALL
GASTEIGER

@<TRIPOS>ATOM
      1 N         139.5380  142.3535  162.3346 N.3     1  UNL1       -0.2713
      2 C         140.4707  143.3680  162.9268 C.3     1  UNL1        0.0749
      3 C         141.1658  144.3565  162.0381 C.3     1  UNL1        0.0485
      4 C         140.9282  144.3305  160.5573 C.3     1  UNL1        0.1096
      5 O         141.8950  145.4739  160.6459 O.3     1  UNL1       -0.3826
      6 C         139.9954  143.3159  159.9651 C.3     1  UNL1        0.0485
      7 C         139.3003  142.3274  160.8537 C.3     1  UNL1        0.0749
      8 H         142.1466  145.6136  161.5722 H       1  UNL1        0.2107
      9 C         141.0263  144.7015  159.1072 C.ar    1  UNL1        0.0015
     10 C         142.0370  144.0275  158.2273 C.ar    1  UNL1       -0.0024
     11 C         142.1351  144.3985  156.7772 C.ar    1  UNL1       -0.0047
     12 C         141.2226  145.4436  156.2071 C.ar    1  UNL1       -0.0213
     13 C         140.2119  146.1177  157.0870 C.ar    1  UNL1        0.0032
     14 C         140.1138  145.7466  158.5370 C.ar    1  UNL1       -0.0042
     15 C         139.2994  147.1627  156.5168 C.3     1  UNL1        0.1683
     16 O         139.3975  147.5338  155.0667 O.3     1  UNL1       -0.3487
     17 C         140.4082  146.8597  154.1869 C.3     1  UNL1        0.1473
     18 C         141.3207  145.8147  154.7570 C.3     1  UNL1        0.0582
     19 C         137.3445  141.3383  163.2876 C.3     1  UNL1        0.0203
     20 C         138.8429  141.3650  163.2233 C.3     1  UNL1        0.0888
     21 C         139.6462  140.4031  164.0476 C.3     1  UNL1        0.1472
     22 O         140.4356  139.3181  163.3771 O.3     1  UNL1       -0.3787
     23 H         140.8934  138.7890  164.0490 H       1  UNL1        0.2108
     24 C         139.6600  140.5263  165.5426 C.ar    1  UNL1        0.0053
     25 C         138.9290  139.5230  166.3845 C.ar    1  UNL1       -0.0007
     26 C         138.9429  139.6461  167.8794 C.ar    1  UNL1        0.0141
     27 C         139.6878  140.7726  168.5322 C.ar    1  UNL1        0.0462
     28 C         140.4187  141.7759  167.6902 C.ar    1  UNL1       -0.0085
     29 C         140.4049  141.6528  166.1954 C.ar    1  UNL1       -0.0049
     30 C         141.1636  142.9024  168.3431 C.3     1  UNL1        0.0372
     31 C         141.1775  143.0256  169.8379 C.3     1  UNL1        0.0901
     32 C         140.4465  142.0222  170.6800 C.2     1  UNL1        0.2264
     33 O         140.4603  142.1454  172.1748 O.2     1  UNL1       -0.2748
     34 N         139.7016  140.8958  170.0272 N.am    1  UNL1       -0.2842
     35 H         139.2218  140.2372  170.5798 H       1  UNL1        0.1548
@<TRIPOS>BOND
     1    19    20    1
     2    20    21    1
     3    21    22    1
     4    21    24    1
     5    24    25   ar
     6    25    26   ar
     7    26    27   ar
     8    27    28   ar
     9    28    29   ar
    10    28    30    1
    11    30    31    1
    12    31    32    1
    13    32    33    2
    14    32    34   am
    15    20     1    1
    16     1     2    1
    17     2     3    1
    18     3     4    1
    19     4     5    1
    20     4     9    1
    21     9    10   ar
    22    10    11   ar
    23    11    12   ar
    24    12    13   ar
    25    13    14   ar
    26    13    15    1
    27    15    16    1
    28    16    17    1
    29    17    18    1
    30     4     6    1
    31     6     7    1
    32    29    24   ar
    33     7     1    1
    34    34    27    1
    35    14     9   ar
    36    18    12    1
    37    22    23    1
    38    34    35    1
    39     5     8    1
@<TRIPOS>MOLECULE
*****
 35 39 0 0 0
SMALL
GASTEIGER

@<TRIPOS>ATOM
      1 N         143.4246  143.4756  163.1795 N.3     1  UNL1       -0.2713
      2 C         142.7003  144.7188  163.6033 C.3     1  UNL1        0.0749
      3 C         141.7048  145.3582  162.6812 C.3     1  UNL1        0.0485
      4 C         141.4338  144.7543  161.3352 C.3     1  UNL1        0.1096
      5 O         140.5030  145.9296  161.2856 O.3     1  UNL1       -0.3826
      6 C         142.1582  143.5111  160.9112 C.3     1  UNL1        0.0485
      7 C         143.1536  142.8717  161.8334 C.3     1  UNL1        0.0749
      8 H         140.5702  146.4304  162.1136 H       1  UNL1        0.2107
      9 C         140.8394  144.5586  159.9719 C.ar    1  UNL1        0.0015
     10 C         139.8661  143.4430  159.7312 C.ar    1  UNL1       -0.0024
     11 C         139.2717  143.2472  158.3679 C.ar    1  UNL1       -0.0047
     12 C         139.6508  144.1671  157.2454 C.ar    1  UNL1       -0.0213
     13 C         140.6242  145.2828  157.4861 C.ar    1  UNL1        0.0032
     14 C         141.2184  145.4785  158.8494 C.ar    1  UNL1       -0.0042
     15 C         141.0032  146.2027  156.3636 C.3     1  UNL1        0.1683
     16 O         140.4088  146.0070  155.0003 O.3     1  UNL1       -0.3487
     17 C         139.4355  144.8913  154.7596 C.3     1  UNL1        0.1473
     18 C         139.0565  143.9715  155.8821 C.3     1  UNL1        0.0582
     19 C         145.4973  141.9525  163.5460 C.3     1  UNL1        0.0203
     20 C         144.4201  142.8363  164.1016 C.3     1  UNL1        0.0888
     21 C         144.3384  143.0807  165.5793 C.3     1  UNL1        0.1472
     22 O         145.2314  144.1007  166.2213 O.3     1  UNL1       -0.3787
     23 H         145.0520  144.1336  167.1740 H       1  UNL1        0.2108
     24 C         143.3636  142.3051  166.4150 C.ar    1  UNL1        0.0053
     25 C         142.4228  141.3353  165.7638 C.ar    1  UNL1       -0.0007
     26 C         141.4481  140.5598  166.5995 C.ar    1  UNL1        0.0141
     27 C         141.4142  140.7541  168.0865 C.ar    1  UNL1        0.0462
     28 C         142.3551  141.7240  168.7377 C.ar    1  UNL1       -0.0085
     29 C         143.3297  142.4995  167.9020 C.ar    1  UNL1       -0.0049
     30 C         142.3212  141.9183  170.2247 C.3     1  UNL1        0.0372
     31 C         141.3465  141.1428  171.0604 C.3     1  UNL1        0.0901
     32 C         140.4056  140.1729  170.4092 C.2     1  UNL1        0.2264
     33 O         139.4309  139.3973  171.2450 O.2     1  UNL1       -0.2748
     34 N         140.4395  139.9785  168.9223 N.am    1  UNL1       -0.2842
     35 H         139.8220  139.3420  168.4948 H       1  UNL1        0.1548
@<TRIPOS>BOND
     1    19    20    1
     2    20    21    1
     3    21    22    1
     4    21    24    1
     5    24    25   ar
     6    25    26   ar
     7    26    27   ar
     8    27    28   ar
     9    28    29   ar
    10    28    30    1
    11    30    31    1
    12    31    32    1
    13    32    33    2
    14    32    34   am
    15    20     1    1
    16     1     2    1
    17     2     3    1
    18     3     4    1
    19     4     5    1
    20     4     9    1
    21     9    10   ar
    22    10    11   ar
    23    11    12   ar
    24    12    13   ar
    25    13    14   ar
    26    13    15    1
    27    15    16    1
    28    16    17    1
    29    17    18    1
    30     4     6    1
    31     6     7    1
    32    29    24   ar
    33     7     1    1
    34    34    27    1
    35    14     9   ar
    36    18    12    1
    37    22    23    1
    38    34    35    1
    39     5     8    1
@<TRIPOS>MOLECULE
*****
 35 39 0 0 0
SMALL
GASTEIGER

@<TRIPOS>ATOM
      1 N         139.3546  139.9855  163.5999 N.3     1  UNL1       -0.2713
      2 C         137.9959  140.6084  163.7260 C.3     1  UNL1        0.0749
      3 C         137.6338  141.7952  162.8830 C.3     1  UNL1        0.0485
      4 C         138.6303  142.3589  161.9140 C.3     1  UNL1        0.1096
      5 O         137.4788  143.2900  161.6747 O.3     1  UNL1       -0.3826
      6 C         139.9890  141.7360  161.7878 C.3     1  UNL1        0.0485
      7 C         140.3512  140.5493  162.6308 C.3     1  UNL1        0.0749
      8 H         136.7374  143.0416  162.2488 H       1  UNL1        0.2107
      9 C         139.2269  143.2461  160.8618 C.ar    1  UNL1        0.0015
     10 C         139.9402  144.5047  161.2583 C.ar    1  UNL1       -0.0024
     11 C         140.5368  145.3918  160.2061 C.ar    1  UNL1       -0.0047
     12 C         140.4202  145.0204  158.7575 C.ar    1  UNL1       -0.0213
     13 C         139.7068  143.7618  158.3611 C.ar    1  UNL1        0.0032
     14 C         139.1102  142.8747  159.4133 C.ar    1  UNL1       -0.0042
     15 C         139.5901  143.3903  156.9125 C.3     1  UNL1        0.1683
     16 O         140.1867  144.2775  155.8603 O.3     1  UNL1       -0.3487
     17 C         140.9000  145.5361  156.2568 C.3     1  UNL1        0.1473
     18 C         141.0167  145.9075  157.7053 C.3     1  UNL1        0.0582
     19 C         138.6854  137.7533  164.7487 C.3     1  UNL1        0.0203
     20 C         139.7168  138.7988  164.4428 C.3     1  UNL1        0.0888
     21 C         141.1101  138.6575  164.9798 C.3     1  UNL1        0.1472
     22 O         141.9550  137.4862  164.5744 O.3     1  UNL1       -0.3787
     23 H         142.8207  137.5466  165.0079 H       1  UNL1        0.2108
     24 C         141.6587  139.6875  165.9224 C.ar    1  UNL1        0.0053
     25 C         142.7227  140.6376  165.4585 C.ar    1  UNL1       -0.0007
     26 C         143.2713  141.6675  166.4009 C.ar    1  UNL1        0.0141
     27 C         142.7558  141.7473  167.8073 C.ar    1  UNL1        0.0462
     28 C         141.6918  140.7973  168.2712 C.ar    1  UNL1       -0.0085
     29 C         141.1433  139.7674  167.3287 C.ar    1  UNL1       -0.0049
     30 C         141.1763  140.8771  169.6776 C.3     1  UNL1        0.0372
     31 C         141.7248  141.9071  170.6201 C.3     1  UNL1        0.0901
     32 C         142.7889  142.8572  170.1562 C.2     1  UNL1        0.2264
     33 O         143.3374  143.8871  171.0987 O.2     1  UNL1       -0.2748
     34 N         143.3044  142.7773  168.7498 N.am    1  UNL1       -0.2842
     35 H         144.0027  143.4009  168.4454 H       1  UNL1        0.1548
@<TRIPOS>BOND
     1    19    20    1
     2    20    21    1
     3    21    22    1
     4    21    24    1
     5    24    25   ar
     6    25    26   ar
     7    26    27   ar
     8    27    28   ar
     9    28    29   ar
    10    28    30    1
    11    30    31    1
    12    31    32    1
    13    32    33    2
    14    32    34   am
    15    20     1    1
    16     1     2    1
    17     2     3    1
    18     3     4    1
    19     4     5    1
    20     4     9    1
    21     9    10   ar
    22    10    11   ar
    23    11    12   ar
    24    12    13   ar
    25    13    14   ar
    26    13    15    1
    27    15    16    1
    28    16    17    1
    29    17    18    1
    30     4     6    1
    31     6     7    1
    32    29    24   ar
    33     7     1    1
    34    34    27    1
    35    14     9   ar
    36    18    12    1
    37    22    23    1
    38    34    35    1
    39     5     8    1
@<TRIPOS>MOLECULE
*****
 35 39 0 0 0
SMALL
GASTEIGER

@<TRIPOS>ATOM
      1 N         143.4417  141.8306  162.0745 N.3     1  UNL1       -0.2713
      2 C         143.3967  143.2042  162.6754 C.3     1  UNL1        0.0749
      3 C         142.6675  144.3084  161.9690 C.3     1  UNL1        0.0485
      4 C         141.9833  144.0390  160.6617 C.3     1  UNL1        0.1096
      5 O         141.6620  145.4946  160.8287 O.3     1  UNL1       -0.3826
      6 C         142.0282  142.6653  160.0606 C.3     1  UNL1        0.0485
      7 C         142.7574  141.5611  160.7671 C.3     1  UNL1        0.0749
      8 H         142.0508  145.8187  161.6561 H       1  UNL1        0.2107
      9 C         141.1874  144.2751  159.4123 C.ar    1  UNL1        0.0015
     10 C         141.5475  145.4072  158.4964 C.ar    1  UNL1       -0.0024
     11 C         140.7517  145.6433  157.2470 C.ar    1  UNL1       -0.0047
     12 C         139.5958  144.7474  156.9136 C.ar    1  UNL1       -0.0213
     13 C         139.2357  143.6153  157.8295 C.ar    1  UNL1        0.0032
     14 C         140.0315  143.3793  159.0788 C.ar    1  UNL1       -0.0042
     15 C         138.0798  142.7195  157.4960 C.3     1  UNL1        0.1683
     16 O         137.2839  142.9556  156.2466 O.3     1  UNL1       -0.3487
     17 C         137.6440  144.0876  155.3308 C.3     1  UNL1        0.1473
     18 C         138.7999  144.9835  155.6642 C.3     1  UNL1        0.0582
     19 C         145.3770  141.0385  163.6163 C.3     1  UNL1        0.0203
     20 C         144.1708  140.7264  162.7809 C.3     1  UNL1        0.0888
     21 C         143.6939  139.3101  162.6519 C.3     1  UNL1        0.1472
     22 O         144.4736  138.3282  161.8285 O.3     1  UNL1       -0.3787
     23 H         144.0314  137.4651  161.8501 H       1  UNL1        0.2108
     24 C         142.4373  138.8756  163.3464 C.ar    1  UNL1        0.0053
     25 C         141.6697  137.6919  162.8369 C.ar    1  UNL1       -0.0007
     26 C         140.4132  137.2575  163.5314 C.ar    1  UNL1        0.0141
     27 C         139.9242  138.0069  164.7353 C.ar    1  UNL1        0.0462
     28 C         140.6917  139.1906  165.2447 C.ar    1  UNL1       -0.0085
     29 C         141.9483  139.6250  164.5503 C.ar    1  UNL1       -0.0049
     30 C         140.2027  139.9400  166.4486 C.3     1  UNL1        0.0372
     31 C         138.9461  139.5056  167.1430 C.3     1  UNL1        0.0901
     32 C         138.1785  138.3218  166.6336 C.2     1  UNL1        0.2264
     33 O         136.9219  137.8874  167.3280 O.2     1  UNL1       -0.2748
     34 N         138.6675  137.5724  165.4297 N.am    1  UNL1       -0.2842
     35 H         138.1637  136.7955  165.0954 H       1  UNL1        0.1548
@<TRIPOS>BOND
     1    19    20    1
     2    20    21    1
     3    21    22    1
     4    21    24    1
     5    24    25   ar
     6    25    26   ar
     7    26    27   ar
     8    27    28   ar
     9    28    29   ar
    10    28    30    1
    11    30    31    1
    12    31    32    1
    13    32    33    2
    14    32    34   am
    15    20     1    1
    16     1     2    1
    17     2     3    1
    18     3     4    1
    19     4     5    1
    20     4     9    1
    21     9    10   ar
    22    10    11   ar
    23    11    12   ar
    24    12    13   ar
    25    13    14   ar
    26    13    15    1
    27    15    16    1
    28    16    17    1
    29    17    18    1
    30     4     6    1
    31     6     7    1
    32    29    24   ar
    33     7     1    1
    34    34    27    1
    35    14     9   ar
    36    18    12    1
    37    22    23    1
    38    34    35    1
    39     5     8    1
@<TRIPOS>MOLECULE
*****
 35 39 0 0 0
SMALL
GASTEIGER

@<TRIPOS>ATOM
      1 N         140.6690  139.8054  158.1720 N.3     1  UNL1       -0.2713
      2 C         142.0613  140.1378  157.7238 C.3     1  UNL1        0.0749
      3 C         142.9253  139.0761  157.1103 C.3     1  UNL1        0.0485
      4 C         142.3970  137.6821  156.9450 C.3     1  UNL1        0.1096
      5 O         143.7717  137.5095  156.3701 O.3     1  UNL1       -0.3826
      6 C         141.0046  137.3496  157.3932 C.3     1  UNL1        0.0485
      7 C         140.1406  138.4113  158.0067 C.3     1  UNL1        0.0749
      8 H         144.2473  138.3539  156.4103 H       1  UNL1        0.2107
      9 C         142.3460  136.2280  156.5800 C.ar    1  UNL1        0.0015
     10 C         141.3622  135.7460  155.5555 C.ar    1  UNL1       -0.0024
     11 C         141.3113  134.2919  155.1905 C.ar    1  UNL1       -0.0047
     12 C         142.2441  133.3200  155.8500 C.ar    1  UNL1       -0.0213
     13 C         143.2280  133.8020  156.8747 C.ar    1  UNL1        0.0032
     14 C         143.2789  135.2560  157.2396 C.ar    1  UNL1       -0.0042
     15 C         144.1608  132.8301  157.5342 C.3     1  UNL1        0.1683
     16 O         144.1099  131.3760  157.1692 O.3     1  UNL1       -0.3487
     17 C         143.1261  130.8940  156.1446 C.3     1  UNL1        0.1473
     18 C         142.1932  131.8659  155.4851 C.3     1  UNL1        0.0582
     19 C         140.2640  142.2952  158.7944 C.3     1  UNL1        0.0203
     20 C         139.8050  140.8671  158.7855 C.3     1  UNL1        0.0888
     21 C         138.4821  140.5008  159.3901 C.3     1  UNL1        0.1472
     22 O         137.3037  140.2234  158.5043 O.3     1  UNL1       -0.3787
     23 H         136.5331  140.0034  159.0508 H       1  UNL1        0.2108
     24 C         138.3374  140.4118  160.8805 C.ar    1  UNL1        0.0053
     25 C         137.8477  141.5969  161.6586 C.ar    1  UNL1       -0.0007
     26 C         137.7030  141.5079  163.1489 C.ar    1  UNL1        0.0141
     27 C         138.0482  140.2337  163.8611 C.ar    1  UNL1        0.0462
     28 C         138.5379  139.0485  163.0830 C.ar    1  UNL1       -0.0085
     29 C         138.6825  139.1376  161.5927 C.ar    1  UNL1       -0.0049
     30 C         138.8830  137.7743  163.7953 C.3     1  UNL1        0.0372
     31 C         138.7384  137.6853  165.2856 C.3     1  UNL1        0.0901
     32 C         138.2486  138.8705  166.0638 C.2     1  UNL1        0.2264
     33 O         138.1040  138.7814  167.5541 O.2     1  UNL1       -0.2748
     34 N         137.9035  140.1447  165.3515 N.am    1  UNL1       -0.2842
     35 H         137.5821  140.9226  165.8622 H       1  UNL1        0.1548
@<TRIPOS>BOND
     1    19    20    1
     2    20    21    1
     3    21    22    1
     4    21    24    1
     5    24    25   ar
     6    25    26   ar
     7    26    27   ar
     8    27    28   ar
     9    28    29   ar
    10    28    30    1
    11    30    31    1
    12    31    32    1
    13    32    33    2
    14    32    34   am
    15    20     1    1
    16     1     2    1
    17     2     3    1
    18     3     4    1
    19     4     5    1
    20     4     9    1
    21     9    10   ar
    22    10    11   ar
    23    11    12   ar
    24    12    13   ar
    25    13    14   ar
    26    13    15    1
    27    15    16    1
    28    16    17    1
    29    17    18    1
    30     4     6    1
    31     6     7    1
    32    29    24   ar
    33     7     1    1
    34    34    27    1
    35    14     9   ar
    36    18    12    1
    37    22    23    1
    38    34    35    1
    39     5     8    1
@<TRIPOS>MOLECULE
*****
 35 39 0 0 0
SMALL
GASTEIGER

@<TRIPOS>ATOM
      1 N         139.9519  144.0842  162.8239 N.3     1  UNL1       -0.2713
      2 C         138.7627  143.2007  162.5893 C.3     1  UNL1        0.0749
      3 C         138.3474  142.2086  163.6349 C.3     1  UNL1        0.0485
      4 C         139.1214  142.1000  164.9152 C.3     1  UNL1        0.1096
      5 O         138.0747  141.0524  165.1539 O.3     1  UNL1       -0.3826
      6 C         140.3107  142.9836  165.1499 C.3     1  UNL1        0.0485
      7 C         140.7259  143.9757  164.1042 C.3     1  UNL1        0.0749
      8 H         137.4825  141.0064  164.3871 H       1  UNL1        0.2107
      9 C         139.5319  141.6276  166.2784 C.ar    1  UNL1        0.0015
     10 C         139.2938  140.2026  166.6815 C.ar    1  UNL1       -0.0024
     11 C         139.7043  139.7302  168.0447 C.ar    1  UNL1       -0.0047
     12 C         140.3528  140.6828  169.0048 C.ar    1  UNL1       -0.0213
     13 C         140.5909  142.1080  168.6017 C.ar    1  UNL1        0.0032
     14 C         140.1804  142.5803  167.2385 C.ar    1  UNL1       -0.0042
     15 C         141.2394  143.0606  169.5618 C.3     1  UNL1        0.1683
     16 O         141.6499  142.5883  170.9250 O.3     1  UNL1       -0.3487
     17 C         141.4118  141.1632  171.3281 C.3     1  UNL1        0.1473
     18 C         140.7633  140.2105  170.3680 C.3     1  UNL1        0.0582
     19 C         139.6745  146.4037  161.6868 C.3     1  UNL1        0.0203
     20 C         140.3671  145.0763  161.7783 C.3     1  UNL1        0.0888
     21 C         141.4749  144.7410  160.8242 C.3     1  UNL1        0.1472
     22 O         141.8342  145.6976  159.7260 O.3     1  UNL1       -0.3787
     23 H         142.5651  145.3310  159.2042 H       1  UNL1        0.2108
     24 C         142.2235  143.4491  160.9682 C.ar    1  UNL1        0.0053
     25 C         143.5686  143.4317  161.6320 C.ar    1  UNL1       -0.0007
     26 C         144.3171  142.1399  161.7760 C.ar    1  UNL1        0.0141
     27 C         143.7206  140.8655  161.2562 C.ar    1  UNL1        0.0462
     28 C         142.3756  140.8829  160.5925 C.ar    1  UNL1       -0.0085
     29 C         141.6271  142.1747  160.4485 C.ar    1  UNL1       -0.0049
     30 C         141.7792  139.6085  160.0728 C.3     1  UNL1        0.0372
     31 C         142.5277  138.3167  160.2168 C.3     1  UNL1        0.0901
     32 C         143.8728  138.2992  160.8806 C.2     1  UNL1        0.2264
     33 O         144.6214  137.0073  161.0246 O.2     1  UNL1       -0.2748
     34 N         144.4693  139.5736  161.4003 N.am    1  UNL1       -0.2842
     35 H         145.3521  139.5622  161.8359 H       1  UNL1        0.1548
@<TRIPOS>BOND
     1    19    20    1
     2    20    21    1
     3    21    22    1
     4    21    24    1
     5    24    25   ar
     6    25    26   ar
     7    26    27   ar
     8    27    28   ar
     9    28    29   ar
    10    28    30    1
    11    30    31    1
    12    31    32    1
    13    32    33    2
    14    32    34   am
    15    20     1    1
    16     1     2    1
    17     2     3    1
    18     3     4    1
    19     4     5    1
    20     4     9    1
    21     9    10   ar
    22    10    11   ar
    23    11    12   ar
    24    12    13   ar
    25    13    14   ar
    26    13    15    1
    27    15    16    1
    28    16    17    1
    29    17    18    1
    30     4     6    1
    31     6     7    1
    32    29    24   ar
    33     7     1    1
    34    34    27    1
    35    14     9   ar
    36    18    12    1
    37    22    23    1
    38    34    35    1
    39     5     8    1
@<TRIPOS>MOLECULE
*****
 35 39 0 0 0
SMALL
GASTEIGER

@<TRIPOS>ATOM
      1 N         143.2509  141.8499  162.7299 N.3     1  UNL1       -0.2713
      2 C         142.8429  143.1836  163.2820 C.3     1  UNL1        0.0749
      3 C         142.3837  144.2702  162.3556 C.3     1  UNL1        0.0485
      4 C         142.3324  144.0231  160.8770 C.3     1  UNL1        0.1096
      5 O         141.8482  145.4422  160.9209 O.3     1  UNL1       -0.3826
      6 C         142.7404  142.6894  160.3248 C.3     1  UNL1        0.0485
      7 C         143.1997  141.6028  161.2513 C.3     1  UNL1        0.0749
      8 H         141.8276  145.7485  161.8410 H       1  UNL1        0.2107
      9 C         142.1130  144.2689  159.4136 C.ar    1  UNL1        0.0015
     10 C         142.9193  143.5156  158.3974 C.ar    1  UNL1       -0.0024
     11 C         142.6999  143.7614  156.9340 C.ar    1  UNL1       -0.0047
     12 C         141.6742  144.7604  156.4868 C.ar    1  UNL1       -0.0213
     13 C         140.8679  145.5137  157.5030 C.ar    1  UNL1        0.0032
     14 C         141.0874  145.2678  158.9663 C.ar    1  UNL1       -0.0042
     15 C         139.8423  146.5126  157.0558 C.3     1  UNL1        0.1683
     16 O         139.6228  146.7584  155.5924 O.3     1  UNL1       -0.3487
     17 C         140.4291  146.0051  154.5762 C.3     1  UNL1        0.1473
     18 C         141.4548  145.0062  155.0235 C.3     1  UNL1        0.0582
     19 C         145.1764  140.5338  163.8747 C.3     1  UNL1        0.0203
     20 C         143.7102  140.7633  163.6564 C.3     1  UNL1        0.0888
     21 C         142.7033  139.9062  164.3646 C.3     1  UNL1        0.1472
     22 O         141.9804  138.8252  163.6170 O.3     1  UNL1       -0.3787
     23 H         141.3702  138.3693  164.2176 H       1  UNL1        0.2108
     24 C         142.4192  140.1301  165.8204 C.ar    1  UNL1        0.0053
     25 C         142.8776  139.1270  166.8369 C.ar    1  UNL1       -0.0007
     26 C         142.5936  139.3509  168.2926 C.ar    1  UNL1        0.0141
     27 C         141.8511  140.5781  168.7318 C.ar    1  UNL1        0.0462
     28 C         141.3927  141.5812  167.7152 C.ar    1  UNL1       -0.0085
     29 C         141.6767  141.3573  166.2595 C.ar    1  UNL1       -0.0049
     30 C         140.6502  142.8084  168.1544 C.3     1  UNL1        0.0372
     31 C         140.3661  143.0323  169.6101 C.3     1  UNL1        0.0901
     32 C         140.8245  142.0291  170.6267 C.2     1  UNL1        0.2264
     33 O         140.5405  142.2531  172.0824 O.2     1  UNL1       -0.2748
     34 N         141.5670  140.8020  170.1876 N.am    1  UNL1       -0.2842
     35 H         141.8679  140.1435  170.8548 H       1  UNL1        0.1548
@<TRIPOS>BOND
     1    19    20    1
     2    20    21    1
     3    21    22    1
     4    21    24    1
     5    24    25   ar
     6    25    26   ar
     7    26    27   ar
     8    27    28   ar
     9    28    29   ar
    10    28    30    1
    11    30    31    1
    12    31    32    1
    13    32    33    2
    14    32    34   am
    15    20     1    1
    16     1     2    1
    17     2     3    1
    18     3     4    1
    19     4     5    1
    20     4     9    1
    21     9    10   ar
    22    10    11   ar
    23    11    12   ar
    24    12    13   ar
    25    13    14   ar
    26    13    15    1
    27    15    16    1
    28    16    17    1
    29    17    18    1
    30     4     6    1
    31     6     7    1
    32    29    24   ar
    33     7     1    1
    34    34    27    1
    35    14     9   ar
    36    18    12    1
    37    22    23    1
    38    34    35    1
    39     5     8    1
@<TRIPOS>MOLECULE
*****
 35 39 0 0 0
SMALL
GASTEIGER

@<TRIPOS>ATOM
      1 N         142.9968  143.1116  163.6457 N.3     1  UNL1       -0.2713
      2 C         142.5265  144.5076  163.9285 C.3     1  UNL1        0.0749
      3 C         141.6949  145.2383  162.9163 C.3     1  UNL1        0.0485
      4 C         141.3336  144.5731  161.6214 C.3     1  UNL1        0.1096
      5 O         140.6561  145.8979  161.4316 O.3     1  UNL1       -0.3826
      6 C         141.8039  143.1770  161.3386 C.3     1  UNL1        0.0485
      7 C         142.6355  142.4463  162.3507 C.3     1  UNL1        0.0749
      8 H         140.8066  146.4529  162.2127 H       1  UNL1        0.2107
      9 C         140.7370  144.3679  160.2605 C.ar    1  UNL1        0.0015
     10 C         139.8827  143.1651  159.9898 C.ar    1  UNL1       -0.0024
     11 C         139.2860  142.9599  158.6289 C.ar    1  UNL1       -0.0047
     12 C         139.5438  143.9575  157.5388 C.ar    1  UNL1       -0.0213
     13 C         140.3982  145.1604  157.8096 C.ar    1  UNL1        0.0032
     14 C         140.9947  145.3655  159.1704 C.ar    1  UNL1       -0.0042
     15 C         140.6559  146.1580  156.7195 C.3     1  UNL1        0.1683
     16 O         140.0593  145.9528  155.3586 O.3     1  UNL1       -0.3487
     17 C         139.2049  144.7500  155.0878 C.3     1  UNL1        0.1473
     18 C         138.9472  143.7524  156.1779 C.3     1  UNL1        0.0582
     19 C         145.0276  141.5949  164.2167 C.3     1  UNL1        0.0203
     20 C         143.8285  142.3809  164.6578 C.3     1  UNL1        0.0888
     21 C         143.4610  142.4360  166.1111 C.3     1  UNL1        0.1472
     22 O         144.2821  143.2559  167.0617 O.3     1  UNL1       -0.3787
     23 H         143.9114  143.1828  167.9551 H       1  UNL1        0.2108
     24 C         142.2724  141.6713  166.6137 C.ar    1  UNL1        0.0053
     25 C         141.9161  141.7113  168.0702 C.ar    1  UNL1       -0.0007
     26 C         140.7276  140.9466  168.5728 C.ar    1  UNL1        0.0141
     27 C         139.8954  140.1419  167.6189 C.ar    1  UNL1        0.0462
     28 C         140.2517  140.1019  166.1624 C.ar    1  UNL1       -0.0085
     29 C         141.4403  140.8666  165.6598 C.ar    1  UNL1       -0.0049
     30 C         139.4196  139.2972  165.2085 C.3     1  UNL1        0.0372
     31 C         138.2311  138.5325  165.7111 C.3     1  UNL1        0.0901
     32 C         137.8747  138.5725  167.1677 C.2     1  UNL1        0.2264
     33 O         136.6862  137.8078  167.6703 O.2     1  UNL1       -0.2748
     34 N         138.7069  139.3772  168.1216 N.am    1  UNL1       -0.2842
     35 H         138.4730  139.4035  169.0775 H       1  UNL1        0.1548
@<TRIPOS>BOND
     1    19    20    1
     2    20    21    1
     3    21    22    1
     4    21    24    1
     5    24    25   ar
     6    25    26   ar
     7    26    27   ar
     8    27    28   ar
     9    28    29   ar
    10    28    30    1
    11    30    31    1
    12    31    32    1
    13    32    33    2
    14    32    34   am
    15    20     1    1
    16     1     2    1
    17     2     3    1
    18     3     4    1
    19     4     5    1
    20     4     9    1
    21     9    10   ar
    22    10    11   ar
    23    11    12   ar
    24    12    13   ar
    25    13    14   ar
    26    13    15    1
    27    15    16    1
    28    16    17    1
    29    17    18    1
    30     4     6    1
    31     6     7    1
    32    29    24   ar
    33     7     1    1
    34    34    27    1
    35    14     9   ar
    36    18    12    1
    37    22    23    1
    38    34    35    1
    39     5     8    1
