@<TRIPOS>MOLECULE
*****
 31 34 0 0 0
SMALL
GASTEIGER

@<TRIPOS>ATOM
      1 C         138.6916  139.4570  165.3255 C.ar    1  UNL1        0.1233
      2 C         139.6437  140.1827  166.2292 C.ar    1  UNL1        0.1180
      3 N         139.2930  139.8365  167.6460 N.ar    1  UNL1       -0.2233
      4 N         138.1241  138.8968  167.6178 N.ar    1  UNL1       -0.0634
      5 N         137.7525  138.6622  166.1837 N.ar    1  UNL1       -0.1287
      6 C         139.9889  140.3414  168.8751 C.3     1  UNL1        0.1828
      7 C         141.3657  140.9275  168.7702 C.3     1  UNL1        0.0440
      8 C         142.0617  141.4323  169.9992 C.3     1  UNL1        0.1170
      9 C         141.3808  141.3511  171.3334 C.3     1  UNL1        0.0980
     10 N         140.0041  140.7651  171.4384 N.am    1  UNL1       -0.3025
     11 C         139.3081  140.2602  170.2092 C.2     1  UNL1        0.2449
     12 O         137.9313  139.6742  170.3142 O.2     1  UNL1       -0.2730
     13 H         139.5572  140.7118  172.3140 H       1  UNL1        0.1495
     14 C         143.4384  142.0184  169.8942 C.3     1  UNL1        0.3992
     15 F         144.8152  142.6045  169.7893 F       1  UNL1       -0.1700
     16 F         144.0268  140.7195  170.3595 F       1  UNL1       -0.1700
     17 F         142.8500  143.3173  169.4289 F       1  UNL1       -0.1700
     18 C         138.7544  140.8986  161.6285 C.ar    1  UNL1        0.1547
     19 C         138.7654  140.8399  163.1272 C.ar    1  UNL1        0.0400
     20 C         138.6806  139.5156  163.8266 C.ar    1  UNL1        0.0241
     21 C         138.5847  138.2501  163.0272 C.ar    1  UNL1        0.0033
     22 C         138.5737  138.3088  161.5284 C.ar    1  UNL1        0.0207
     23 C         138.6585  139.6331  160.8291 C.ar    1  UNL1        0.0994
     24 N         138.6475  139.6917  159.3302 N.ar    1  UNL1       -0.2839
     25 C         137.6412  140.4132  158.4834 C.ar    1  UNL1        0.1826
     26 N         138.0126  140.2065  157.0449 N.ar    1  UNL1       -0.2280
     27 C         139.2484  139.3574  157.0026 C.ar    1  UNL1        0.0786
     28 C         139.9659  138.9057  155.7652 C.3     1  UNL1        0.0538
     29 C         139.6408  139.0392  158.4150 C.ar    1  UNL1        0.0963
     30 C         139.1520  143.4648  161.7100 C.3     1  UNL1        0.2525
     31 O         138.8392  142.2229  160.9291 O.3     1  UNL1       -0.4700
@<TRIPOS>BOND
     1    30    31    1
     2    31    18    1
     3    18    19   ar
     4    19    20   ar
     5    20     1    1
     6     1     2   ar
     7     2     3   ar
     8     3     6    1
     9     6     7    1
    10     7     8    1
    11     8    14    1
    12    14    15    1
    13    14    16    1
    14    14    17    1
    15     8     9    1
    16     9    10    1
    17    10    11   am
    18    11    12    2
    19     3     4   ar
    20     4     5   ar
    21    20    21   ar
    22    21    22   ar
    23    22    23   ar
    24    23    24    1
    25    24    25   ar
    26    25    26   ar
    27    26    27   ar
    28    27    28    1
    29    27    29   ar
    30    23    18   ar
    31    29    24   ar
    32     5     1   ar
    33    11     6    1
    34    10    13    1
@<TRIPOS>MOLECULE
*****
 31 34 0 0 0
SMALL
GASTEIGER

@<TRIPOS>ATOM
      1 C         143.0955  138.2343  159.9164 C.ar    1  UNL1        0.1233
      2 C         142.7375  136.8970  159.3392 C.ar    1  UNL1        0.1180
      3 N         142.9301  136.9667  157.8533 N.ar    1  UNL1       -0.2233
      4 N         143.4072  138.3473  157.5120 N.ar    1  UNL1       -0.0634
      5 N         143.5095  139.1307  158.7871 N.ar    1  UNL1       -0.1287
      6 C         142.6880  135.8517  156.8795 C.3     1  UNL1        0.1828
      7 C         143.6194  134.6767  156.8381 C.3     1  UNL1        0.0440
      8 C         143.3775  133.5617  155.8645 C.3     1  UNL1        0.1170
      9 C         142.2040  133.6218  154.9320 C.3     1  UNL1        0.0980
     10 N         141.2726  134.7968  154.9733 N.am    1  UNL1       -0.3025
     11 C         141.5146  135.9118  155.9471 C.2     1  UNL1        0.2449
     12 O         140.5832  137.0868  155.9885 O.2     1  UNL1       -0.2730
     13 H         140.5024  134.8362  154.3613 H       1  UNL1        0.1495
     14 C         144.3089  132.3867  155.8231 C.3     1  UNL1        0.3992
     15 F         145.2403  131.2116  155.7817 F       1  UNL1       -0.1700
     16 F         143.7744  132.0105  154.4730 F       1  UNL1       -0.1700
     17 F         144.8435  132.7628  157.1732 F       1  UNL1       -0.1700
     18 C         144.1740  139.6688  163.4560 C.ar    1  UNL1        0.1547
     19 C         144.2215  139.2936  162.0045 C.ar    1  UNL1        0.0400
     20 C         143.0481  138.6096  161.3680 C.ar    1  UNL1        0.0241
     21 C         141.8272  138.3007  162.1829 C.ar    1  UNL1        0.0033
     22 C         141.7798  138.6760  163.6344 C.ar    1  UNL1        0.0207
     23 C         142.9532  139.3600  164.2710 C.ar    1  UNL1        0.0994
     24 N         142.9057  139.7352  165.7226 N.ar    1  UNL1       -0.2839
     25 C         143.0903  138.8007  166.8813 C.ar    1  UNL1        0.1826
     26 N         142.9640  139.5988  168.1451 N.ar    1  UNL1       -0.2280
     27 C         142.7012  141.0265  167.7674 C.ar    1  UNL1        0.0786
     28 C         142.5084  142.1693  168.7197 C.3     1  UNL1        0.0538
     29 C         142.6652  141.1108  166.2702 C.ar    1  UNL1        0.0963
     30 C         145.7766  141.7077  163.6129 C.3     1  UNL1        0.2525
     31 O         145.3474  140.3528  164.0926 O.3     1  UNL1       -0.4700
@<TRIPOS>BOND
     1    30    31    1
     2    31    18    1
     3    18    19   ar
     4    19    20   ar
     5    20     1    1
     6     1     2   ar
     7     2     3   ar
     8     3     6    1
     9     6     7    1
    10     7     8    1
    11     8    14    1
    12    14    15    1
    13    14    16    1
    14    14    17    1
    15     8     9    1
    16     9    10    1
    17    10    11   am
    18    11    12    2
    19     3     4   ar
    20     4     5   ar
    21    20    21   ar
    22    21    22   ar
    23    22    23   ar
    24    23    24    1
    25    24    25   ar
    26    25    26   ar
    27    26    27   ar
    28    27    28    1
    29    27    29   ar
    30    23    18   ar
    31    29    24   ar
    32     5     1   ar
    33    11     6    1
    34    10    13    1
@<TRIPOS>MOLECULE
*****
 31 34 0 0 0
SMALL
GASTEIGER

@<TRIPOS>ATOM
      1 C         143.1038  138.7849  160.3984 C.ar    1  UNL1        0.1233
      2 C         142.5441  137.5467  159.7632 C.ar    1  UNL1        0.1180
      3 N         142.8106  137.6210  158.2890 N.ar    1  UNL1       -0.2233
      4 N         143.5351  138.9052  158.0130 N.ar    1  UNL1       -0.0634
      5 N         143.7162  139.6245  159.3168 N.ar    1  UNL1       -0.1287
      6 C         142.4211  136.5919  157.2696 C.3     1  UNL1        0.1828
      7 C         143.2960  135.3953  157.0397 C.3     1  UNL1        0.0440
      8 C         142.9066  134.3661  156.0204 C.3     1  UNL1        0.1170
      9 C         141.6422  134.5336  155.2309 C.3     1  UNL1        0.0980
     10 N         140.7673  135.7301  155.4607 N.am    1  UNL1       -0.3025
     11 C         141.1568  136.7592  156.4801 C.2     1  UNL1        0.2449
     12 O         140.2820  137.9558  156.7099 O.2     1  UNL1       -0.2730
     13 H         139.9375  135.8399  154.9425 H       1  UNL1        0.1495
     14 C         143.7815  133.1696  155.7906 C.3     1  UNL1        0.3992
     15 F         144.6563  131.9730  155.5607 F       1  UNL1       -0.1700
     16 F         144.5579  133.4990  157.0310 F       1  UNL1       -0.1700
     17 F         143.0050  132.8401  154.5502 F       1  UNL1       -0.1700
     18 C         141.6970  139.7232  163.9888 C.ar    1  UNL1        0.1547
     19 C         141.7420  139.3841  162.5284 C.ar    1  UNL1        0.0400
     20 C         143.0589  139.1241  161.8590 C.ar    1  UNL1        0.0241
     21 C         144.3309  139.2033  162.6500 C.ar    1  UNL1        0.0033
     22 C         144.2860  139.5424  164.1104 C.ar    1  UNL1        0.0207
     23 C         142.9690  139.8024  164.7798 C.ar    1  UNL1        0.0994
     24 N         142.9242  140.1415  166.2404 N.ar    1  UNL1       -0.2839
     25 C         142.9166  139.1591  167.3738 C.ar    1  UNL1        0.1826
     26 N         142.8667  139.9330  168.6577 N.ar    1  UNL1       -0.2280
     27 C         142.8435  141.3939  168.3178 C.ar    1  UNL1        0.0786
     28 C         142.7935  142.5269  169.2995 C.3     1  UNL1        0.0538
     29 C         142.8790  141.5227  166.8238 C.ar    1  UNL1        0.0963
     30 C         139.6395  138.8583  165.3186 C.3     1  UNL1        0.2525
     31 O         140.3801  139.9832  164.6583 O.3     1  UNL1       -0.4700
@<TRIPOS>BOND
     1    30    31    1
     2    31    18    1
     3    18    19   ar
     4    19    20   ar
     5    20     1    1
     6     1     2   ar
     7     2     3   ar
     8     3     6    1
     9     6     7    1
    10     7     8    1
    11     8    14    1
    12    14    15    1
    13    14    16    1
    14    14    17    1
    15     8     9    1
    16     9    10    1
    17    10    11   am
    18    11    12    2
    19     3     4   ar
    20     4     5   ar
    21    20    21   ar
    22    21    22   ar
    23    22    23   ar
    24    23    24    1
    25    24    25   ar
    26    25    26   ar
    27    26    27   ar
    28    27    28    1
    29    27    29   ar
    30    23    18   ar
    31    29    24   ar
    32     5     1   ar
    33    11     6    1
    34    10    13    1
@<TRIPOS>MOLECULE
*****
 31 34 0 0 0
SMALL
GASTEIGER

@<TRIPOS>ATOM
      1 C         141.2052  139.0605  164.0504 C.ar    1  UNL1        0.1233
      2 C         140.5822  139.9414  165.0924 C.ar    1  UNL1        0.1180
      3 N         141.2901  139.6946  166.3916 N.ar    1  UNL1       -0.2233
      4 N         142.3507  138.6610  166.1525 N.ar    1  UNL1       -0.0634
      5 N         142.2982  138.2692  164.7056 N.ar    1  UNL1       -0.1287
      6 C         140.9902  140.3637  167.7001 C.3     1  UNL1        0.1828
      7 C         141.9974  141.2873  168.3185 C.3     1  UNL1        0.0440
      8 C         141.6976  141.9564  169.6270 C.3     1  UNL1        0.1170
      9 C         140.3903  141.7020  170.3171 C.3     1  UNL1        0.0980
     10 N         139.3830  140.7785  169.6989 N.am    1  UNL1       -0.3025
     11 C         139.6829  140.1094  168.3903 C.2     1  UNL1        0.2449
     12 O         138.6756  139.1858  167.7719 O.2     1  UNL1       -0.2730
     13 H         138.5250  140.6116  170.1519 H       1  UNL1        0.1495
     14 C         142.7049  142.8800  170.2453 C.3     1  UNL1        0.3992
     15 F         143.7122  143.8035  170.8637 F       1  UNL1       -0.1700
     16 F         143.7420  141.7988  170.1708 F       1  UNL1       -0.1700
     17 F         141.6678  143.9612  170.3199 F       1  UNL1       -0.1700
     18 C         141.2365  139.5916  160.1175 C.ar    1  UNL1        0.1547
     19 C         141.6362  139.6678  161.5613 C.ar    1  UNL1        0.0400
     20 C         140.8055  138.9843  162.6066 C.ar    1  UNL1        0.0241
     21 C         139.5750  138.2245  162.2082 C.ar    1  UNL1        0.0033
     22 C         139.1753  138.1483  160.7644 C.ar    1  UNL1        0.0207
     23 C         140.0061  138.8318  159.7191 C.ar    1  UNL1        0.0994
     24 N         139.6063  138.7556  158.2753 N.ar    1  UNL1       -0.2839
     25 C         138.8233  139.7893  157.5215 C.ar    1  UNL1        0.1826
     26 N         138.6525  139.3048  156.1122 N.ar    1  UNL1       -0.2280
     27 C         139.3300  137.9716  155.9951 C.ar    1  UNL1        0.0786
     28 C         139.4048  137.1263  154.7582 C.3     1  UNL1        0.0538
     29 C         139.9195  137.6322  157.3319 C.ar    1  UNL1        0.0963
     30 C         143.1945  139.5393  158.4107 C.3     1  UNL1        0.2525
     31 O         142.0672  140.2751  159.0722 O.3     1  UNL1       -0.4700
@<TRIPOS>BOND
     1    30    31    1
     2    31    18    1
     3    18    19   ar
     4    19    20   ar
     5    20     1    1
     6     1     2   ar
     7     2     3   ar
     8     3     6    1
     9     6     7    1
    10     7     8    1
    11     8    14    1
    12    14    15    1
    13    14    16    1
    14    14    17    1
    15     8     9    1
    16     9    10    1
    17    10    11   am
    18    11    12    2
    19     3     4   ar
    20     4     5   ar
    21    20    21   ar
    22    21    22   ar
    23    22    23   ar
    24    23    24    1
    25    24    25   ar
    26    25    26   ar
    27    26    27   ar
    28    27    28    1
    29    27    29   ar
    30    23    18   ar
    31    29    24   ar
    32     5     1   ar
    33    11     6    1
    34    10    13    1
@<TRIPOS>MOLECULE
*****
 31 34 0 0 0
SMALL
GASTEIGER

@<TRIPOS>ATOM
      1 C         140.7382  138.6743  160.8384 C.ar    1  UNL1        0.1233
      2 C         141.9715  138.2509  160.0970 C.ar    1  UNL1        0.1180
      3 N         141.6229  138.1407  158.6422 N.ar    1  UNL1       -0.2233
      4 N         140.1741  138.4960  158.4845 N.ar    1  UNL1       -0.0634
      5 N         139.6273  138.8258  159.8418 N.ar    1  UNL1       -0.1287
      6 C         142.5588  137.7447  157.5389 C.3     1  UNL1        0.1828
      7 C         142.6822  136.3037  157.1411 C.3     1  UNL1        0.0440
      8 C         143.6180  135.9077  156.0378 C.3     1  UNL1        0.1170
      9 C         144.4305  136.9528  155.3323 C.3     1  UNL1        0.0980
     10 N         144.3071  138.3938  155.7300 N.am    1  UNL1       -0.3025
     11 C         143.3712  138.7898  156.8333 C.2     1  UNL1        0.2449
     12 O         143.2478  140.2308  157.2311 O.2     1  UNL1       -0.2730
     13 H         144.8403  139.0797  155.2669 H       1  UNL1        0.1495
     14 C         143.7414  134.4667  155.6400 C.3     1  UNL1        0.3992
     15 F         143.8649  133.0257  155.2423 F       1  UNL1       -0.1700
     16 F         143.2012  134.7958  154.2800 F       1  UNL1       -0.1700
     17 F         144.2817  134.1375  157.0001 F       1  UNL1       -0.1700
     18 C         140.6094  140.5309  164.3436 C.ar    1  UNL1        0.1547
     19 C         140.7137  140.2995  162.8653 C.ar    1  UNL1        0.0400
     20 C         140.6339  138.9057  162.3168 C.ar    1  UNL1        0.0241
     21 C         140.4500  137.7432  163.2467 C.ar    1  UNL1        0.0033
     22 C         140.3458  137.9746  164.7250 C.ar    1  UNL1        0.0207
     23 C         140.4255  139.3684  165.2735 C.ar    1  UNL1        0.0994
     24 N         140.3213  139.5998  166.7519 N.ar    1  UNL1       -0.2839
     25 C         139.0515  139.6528  167.5487 C.ar    1  UNL1        0.1826
     26 N         139.4140  139.9045  168.9823 N.ar    1  UNL1       -0.2280
     27 C         140.9079  140.0070  169.0716 C.ar    1  UNL1        0.0786
     28 C         141.7016  140.2544  170.3201 C.3     1  UNL1        0.0538
     29 C         141.4685  139.8187  167.6931 C.ar    1  UNL1        0.0963
     30 C         142.0238  142.5864  165.0679 C.3     1  UNL1        0.2525
     31 O         140.6891  141.9248  164.8921 O.3     1  UNL1       -0.4700
@<TRIPOS>BOND
     1    30    31    1
     2    31    18    1
     3    18    19   ar
     4    19    20   ar
     5    20     1    1
     6     1     2   ar
     7     2     3   ar
     8     3     6    1
     9     6     7    1
    10     7     8    1
    11     8    14    1
    12    14    15    1
    13    14    16    1
    14    14    17    1
    15     8     9    1
    16     9    10    1
    17    10    11   am
    18    11    12    2
    19     3     4   ar
    20     4     5   ar
    21    20    21   ar
    22    21    22   ar
    23    22    23   ar
    24    23    24    1
    25    24    25   ar
    26    25    26   ar
    27    26    27   ar
    28    27    28    1
    29    27    29   ar
    30    23    18   ar
    31    29    24   ar
    32     5     1   ar
    33    11     6    1
    34    10    13    1
@<TRIPOS>MOLECULE
*****
 31 34 0 0 0
SMALL
GASTEIGER

@<TRIPOS>ATOM
      1 C         141.4220  143.9681  161.0282 C.ar    1  UNL1        0.1233
      2 C         140.2802  144.2877  160.1096 C.ar    1  UNL1        0.1180
      3 N         140.8509  144.6667  158.7752 N.ar    1  UNL1       -0.2233
      4 N         142.3456  144.5812  158.8691 N.ar    1  UNL1       -0.0634
      5 N         142.6985  144.1495  160.2616 N.ar    1  UNL1       -0.1287
      6 C         140.0650  145.0617  157.5601 C.3     1  UNL1        0.1828
      7 C         139.8520  146.5123  157.2436 C.3     1  UNL1        0.0440
      8 C         139.0661  146.9074  156.0287 C.3     1  UNL1        0.1170
      9 C         138.4932  145.8517  155.1301 C.3     1  UNL1        0.0980
     10 N         138.7062  144.4011  155.4465 N.am    1  UNL1       -0.3025
     11 C         139.4921  144.0061  156.6616 C.2     1  UNL1        0.2449
     12 O         139.7051  142.5554  156.9781 O.2     1  UNL1       -0.2730
     13 H         138.3302  143.7082  154.8567 H       1  UNL1        0.1495
     14 C         138.8531  148.3581  155.7121 C.3     1  UNL1        0.3992
     15 F         138.6401  149.8088  155.3956 F       1  UNL1       -0.1700
     16 F         138.4842  148.6161  157.1430 F       1  UNL1       -0.1700
     17 F         139.2220  148.1001  154.2813 F       1  UNL1       -0.1700
     18 C         139.8889  142.5928  164.4206 C.ar    1  UNL1        0.1547
     19 C         140.0034  143.0190  162.9870 C.ar    1  UNL1        0.0400
     20 C         141.3076  143.5419  162.4619 C.ar    1  UNL1        0.0241
     21 C         142.4972  143.6387  163.3704 C.ar    1  UNL1        0.0033
     22 C         142.3827  143.2125  164.8039 C.ar    1  UNL1        0.0207
     23 C         141.0786  142.6895  165.3291 C.ar    1  UNL1        0.0994
     24 N         140.9641  142.2633  166.7627 N.ar    1  UNL1       -0.2839
     25 C         141.4952  140.9888  167.3488 C.ar    1  UNL1        0.1826
     26 N         141.1578  140.9746  168.8102 N.ar    1  UNL1       -0.2280
     27 C         140.4181  142.2404  169.1275 C.ar    1  UNL1        0.0786
     28 C         139.8907  142.6397  170.4737 C.3     1  UNL1        0.0538
     29 C         140.2984  143.0369  167.8620 C.ar    1  UNL1        0.0963
     30 C         138.3277  140.5924  164.9783 C.3     1  UNL1        0.2525
     31 O         138.5848  142.0698  164.9457 O.3     1  UNL1       -0.4700
@<TRIPOS>BOND
     1    30    31    1
     2    31    18    1
     3    18    19   ar
     4    19    20   ar
     5    20     1    1
     6     1     2   ar
     7     2     3   ar
     8     3     6    1
     9     6     7    1
    10     7     8    1
    11     8    14    1
    12    14    15    1
    13    14    16    1
    14    14    17    1
    15     8     9    1
    16     9    10    1
    17    10    11   am
    18    11    12    2
    19     3     4   ar
    20     4     5   ar
    21    20    21   ar
    22    21    22   ar
    23    22    23   ar
    24    23    24    1
    25    24    25   ar
    26    25    26   ar
    27    26    27   ar
    28    27    28    1
    29    27    29   ar
    30    23    18   ar
    31    29    24   ar
    32     5     1   ar
    33    11     6    1
    34    10    13    1
@<TRIPOS>MOLECULE
*****
 31 34 0 0 0
SMALL
GASTEIGER

@<TRIPOS>ATOM
      1 C         140.3208  144.7914  162.3774 C.ar    1  UNL1        0.1233
      2 C         141.0836  144.4863  161.1224 C.ar    1  UNL1        0.1180
      3 N         140.5478  145.3630  160.0296 N.ar    1  UNL1       -0.2233
      4 N         139.4538  146.2100  160.6092 N.ar    1  UNL1       -0.0634
      5 N         139.3136  145.8567  162.0603 N.ar    1  UNL1       -0.1287
      6 C         141.0225  145.3883  158.6069 C.3     1  UNL1        0.1828
      7 C         140.2714  146.1824  157.5796 C.3     1  UNL1        0.0440
      8 C         140.7461  146.2077  156.1570 C.3     1  UNL1        0.1170
      9 C         141.9720  145.4388  155.7617 C.3     1  UNL1        0.0980
     10 N         142.7230  144.6448  156.7888 N.am    1  UNL1       -0.3025
     11 C         142.2483  144.6195  158.2115 C.2     1  UNL1        0.2449
     12 O         142.9993  143.8254  159.2388 O.2     1  UNL1       -0.2730
     13 H         143.5276  144.1402  156.5293 H       1  UNL1        0.1495
     14 C         139.9950  147.0018  155.1297 C.3     1  UNL1        0.3992
     15 F         139.2440  147.7959  154.1024 F       1  UNL1       -0.1700
     16 F         141.1230  146.8129  154.1591 F       1  UNL1       -0.1700
     17 F         138.8671  147.1906  156.1003 F       1  UNL1       -0.1700
     18 C         142.0098  142.7578  165.3375 C.ar    1  UNL1        0.1547
     19 C         141.8018  143.4044  164.0001 C.ar    1  UNL1        0.0400
     20 C         140.5288  144.1448  163.7149 C.ar    1  UNL1        0.0241
     21 C         139.4639  144.2387  164.7671 C.ar    1  UNL1        0.0033
     22 C         139.6719  143.5921  166.1044 C.ar    1  UNL1        0.0207
     23 C         140.9448  142.8516  166.3896 C.ar    1  UNL1        0.0994
     24 N         141.1528  142.2050  167.7271 N.ar    1  UNL1       -0.2839
     25 C         142.3428  142.3914  168.6210 C.ar    1  UNL1        0.1826
     26 N         142.1327  141.5601  169.8518 N.ar    1  UNL1       -0.2280
     27 C         140.8128  140.8599  169.7185 C.ar    1  UNL1        0.0786
     28 C         140.2053  139.9252  170.7221 C.3     1  UNL1        0.0538
     29 C         140.2073  141.2585  168.4054 C.ar    1  UNL1        0.0963
     30 C         143.9223  141.1848  164.5514 C.3     1  UNL1        0.2525
     31 O         143.2827  142.0173  165.6227 O.3     1  UNL1       -0.4700
@<TRIPOS>BOND
     1    30    31    1
     2    31    18    1
     3    18    19   ar
     4    19    20   ar
     5    20     1    1
     6     1     2   ar
     7     2     3   ar
     8     3     6    1
     9     6     7    1
    10     7     8    1
    11     8    14    1
    12    14    15    1
    13    14    16    1
    14    14    17    1
    15     8     9    1
    16     9    10    1
    17    10    11   am
    18    11    12    2
    19     3     4   ar
    20     4     5   ar
    21    20    21   ar
    22    21    22   ar
    23    22    23   ar
    24    23    24    1
    25    24    25   ar
    26    25    26   ar
    27    26    27   ar
    28    27    28    1
    29    27    29   ar
    30    23    18   ar
    31    29    24   ar
    32     5     1   ar
    33    11     6    1
    34    10    13    1
@<TRIPOS>MOLECULE
*****
 31 34 0 0 0
SMALL
GASTEIGER

@<TRIPOS>ATOM
      1 C         142.6735  143.3791  163.5454 C.ar    1  UNL1        0.1233
      2 C         141.7812  142.7000  164.5416 C.ar    1  UNL1        0.1180
      3 N         142.5759  142.4663  165.7921 N.ar    1  UNL1       -0.2233
      4 N         143.9595  143.0010  165.5687 N.ar    1  UNL1       -0.0634
      5 N         144.0198  143.5652  164.1802 N.ar    1  UNL1       -0.1287
      6 C         142.0751  141.8127  167.0459 C.3     1  UNL1        0.1828
      7 C         141.2492  142.5968  168.0221 C.3     1  UNL1        0.0440
      8 C         140.7483  141.9433  169.2758 C.3     1  UNL1        0.1170
      9 C         141.0735  140.5054  169.5534 C.3     1  UNL1        0.0980
     10 N         141.8994  139.7212  168.5773 N.am    1  UNL1       -0.3025
     11 C         142.4002  140.3749  167.3235 C.2     1  UNL1        0.2449
     12 O         143.2261  139.5907  166.3473 O.2     1  UNL1       -0.2730
     13 H         142.1128  138.7776  168.7595 H       1  UNL1        0.1495
     14 C         139.9224  142.7274  170.2520 C.3     1  UNL1        0.3992
     15 F         139.0965  143.5115  171.2282 F       1  UNL1       -0.1700
     16 F         138.9393  141.5970  170.3282 F       1  UNL1       -0.1700
     17 F         140.9055  143.8577  170.1758 F       1  UNL1       -0.1700
     18 C         142.6039  143.6255  159.5850 C.ar    1  UNL1        0.1547
     19 C         142.9900  143.2061  160.9724 C.ar    1  UNL1        0.0400
     20 C         142.2874  143.7986  162.1579 C.ar    1  UNL1        0.0241
     21 C         141.1987  144.8104  161.9559 C.ar    1  UNL1        0.0033
     22 C         140.8126  145.2298  160.5685 C.ar    1  UNL1        0.0207
     23 C         141.5152  144.6374  159.3831 C.ar    1  UNL1        0.0994
     24 N         141.1291  145.0568  157.9956 N.ar    1  UNL1       -0.2839
     25 C         141.9335  145.9356  157.0842 C.ar    1  UNL1        0.1826
     26 N         141.1723  146.0930  155.8013 N.ar    1  UNL1       -0.2280
     27 C         139.8974  145.3115  155.9198 C.ar    1  UNL1        0.0786
     28 C         138.8357  145.1914  154.8670 C.3     1  UNL1        0.0538
     29 C         139.8708  144.6711  157.2759 C.ar    1  UNL1        0.0963
     30 C         143.9486  141.6817  158.5064 C.3     1  UNL1        0.2525
     31 O         143.3066  143.0331  158.3996 O.3     1  UNL1       -0.4700
@<TRIPOS>BOND
     1    30    31    1
     2    31    18    1
     3    18    19   ar
     4    19    20   ar
     5    20     1    1
     6     1     2   ar
     7     2     3   ar
     8     3     6    1
     9     6     7    1
    10     7     8    1
    11     8    14    1
    12    14    15    1
    13    14    16    1
    14    14    17    1
    15     8     9    1
    16     9    10    1
    17    10    11   am
    18    11    12    2
    19     3     4   ar
    20     4     5   ar
    21    20    21   ar
    22    21    22   ar
    23    22    23   ar
    24    23    24    1
    25    24    25   ar
    26    25    26   ar
    27    26    27   ar
    28    27    28    1
    29    27    29   ar
    30    23    18   ar
    31    29    24   ar
    32     5     1   ar
    33    11     6    1
    34    10    13    1
@<TRIPOS>MOLECULE
*****
 31 34 0 0 0
SMALL
GASTEIGER

@<TRIPOS>ATOM
      1 C         139.1366  143.4030  161.7341 C.ar    1  UNL1        0.1233
      2 C         139.7425  142.4234  162.6950 C.ar    1  UNL1        0.1180
      3 N         138.8711  142.3714  163.9149 N.ar    1  UNL1       -0.2233
      4 N         137.7267  143.3188  163.7079 N.ar    1  UNL1       -0.0634
      5 N         137.8908  143.9563  162.3601 N.ar    1  UNL1       -0.1287
      6 C         139.1034  141.5212  165.1287 C.3     1  UNL1        0.1828
      7 C         138.4180  140.1931  165.2565 C.3     1  UNL1        0.0440
      8 C         138.6502  139.3429  166.4701 C.3     1  UNL1        0.1170
      9 C         139.5680  139.8209  167.5562 C.3     1  UNL1        0.0980
     10 N         140.2534  141.1489  167.4284 N.am    1  UNL1       -0.3025
     11 C         140.0211  141.9991  166.2146 C.2     1  UNL1        0.2449
     12 O         140.7066  143.3272  166.0868 O.2     1  UNL1       -0.2730
     13 H         140.8557  141.4625  168.1412 H       1  UNL1        0.1495
     14 C         137.9647  138.0148  166.5980 C.3     1  UNL1        0.3992
     15 F         137.2793  136.6867  166.7258 F       1  UNL1       -0.1700
     16 F         137.1092  138.5626  167.7016 F       1  UNL1       -0.1700
     17 F         138.8203  137.4670  165.4943 F       1  UNL1       -0.1700
     18 C         140.1373  143.1480  157.9022 C.ar    1  UNL1        0.1547
     19 C         139.5930  142.7854  159.2520 C.ar    1  UNL1        0.0400
     20 C         139.6810  143.7656  160.3841 C.ar    1  UNL1        0.0241
     21 C         140.3132  145.1082  160.1663 C.ar    1  UNL1        0.0033
     22 C         140.8575  145.4707  158.8164 C.ar    1  UNL1        0.0207
     23 C         140.7695  144.4906  157.6843 C.ar    1  UNL1        0.0994
     24 N         141.3139  144.8532  156.3344 N.ar    1  UNL1       -0.2839
     25 C         140.6330  145.7129  155.3110 C.ar    1  UNL1        0.1826
     26 N         141.5330  145.8107  154.1150 N.ar    1  UNL1       -0.2280
     27 C         142.7702  145.0115  154.3992 C.ar    1  UNL1        0.0786
     28 C         143.9377  144.8350  153.4742 C.3     1  UNL1        0.0538
     29 C         142.6347  144.4197  155.7709 C.ar    1  UNL1        0.0963
     30 C         138.7177  141.6109  156.3619 C.3     1  UNL1        0.2525
     31 O         140.0493  142.1678  156.7701 O.3     1  UNL1       -0.4700
@<TRIPOS>BOND
     1    30    31    1
     2    31    18    1
     3    18    19   ar
     4    19    20   ar
     5    20     1    1
     6     1     2   ar
     7     2     3   ar
     8     3     6    1
     9     6     7    1
    10     7     8    1
    11     8    14    1
    12    14    15    1
    13    14    16    1
    14    14    17    1
    15     8     9    1
    16     9    10    1
    17    10    11   am
    18    11    12    2
    19     3     4   ar
    20     4     5   ar
    21    20    21   ar
    22    21    22   ar
    23    22    23   ar
    24    23    24    1
    25    24    25   ar
    26    25    26   ar
    27    26    27   ar
    28    27    28    1
    29    27    29   ar
    30    23    18   ar
    31    29    24   ar
    32     5     1   ar
    33    11     6    1
    34    10    13    1
