@<TRIPOS>MOLECULE
*****
 29 32 0 0 0
SMALL
GASTEIGER

@<TRIPOS>ATOM
      1 C         145.5730  142.0382  163.4927 C.3     1  UNL1        0.0948
      2 C         144.3380  142.8310  163.1824 C.2     1  UNL1        0.2266
      3 O         144.3970  143.9530  162.1885 O.2     1  UNL1       -0.2748
      4 N         143.0439  142.5018  163.8659 N.am    1  UNL1       -0.2692
      5 C         142.8326  141.4140  164.8768 C.3     1  UNL1        0.1372
      6 C         141.3922  141.4425  165.2942 C.3     1  UNL1        0.1877
      7 C         140.7132  142.5481  164.5412 C.3     1  UNL1        0.0745
      8 C         141.7341  143.2027  163.6585 C.3     1  UNL1        0.1557
      9 C         141.4883  144.3558  162.7312 C.2     1  UNL1        0.2439
     10 O         141.6854  145.7621  163.2144 O.2     1  UNL1       -0.2731
     11 N         141.0452  144.1027  161.3207 N.am    1  UNL1       -0.2767
     12 C         140.8783  142.6615  160.9396 C.3     1  UNL1        0.0949
     13 C         140.4527  142.0859  159.6215 C.3     1  UNL1        0.0388
     14 C         140.0888  142.8093  158.3588 C.3     1  UNL1        0.0739
     15 N         140.0606  144.2870  158.1025 N.3     1  UNL1       -0.2725
     16 C         140.3895  145.4062  159.0454 C.3     1  UNL1        0.0938
     17 C         140.8277  145.3241  160.4777 C.3     1  UNL1        0.1107
     18 C         139.6493  144.7001  156.7203 C.3     1  UNL1        0.0576
     19 C         139.1154  143.9853  155.5146 C.3     1  UNL1        0.0160
     20 C         139.0675  145.2841  154.7658 C.3     1  UNL1        0.0028
     21 C         139.6014  145.9989  155.9717 C.3     1  UNL1        0.0160
     22 O         140.7444  140.5264  166.2898 O.3     1  UNL1       -0.4773
     23 C         140.3635  141.0416  167.6461 C.ar    1  UNL1        0.1407
     24 C         139.6061  140.1626  168.5967 C.ar    1  UNL1        0.0370
     25 C         139.2253  140.6778  169.9530 C.ar    1  UNL1        0.0054
     26 C         139.6017  142.0719  170.3586 C.ar    1  UNL1        0.0298
     27 C         140.3591  142.9509  169.4080 C.ar    1  UNL1        0.1432
     28 F         140.7356  144.3451  169.8136 F       1  UNL1       -0.2041
     29 C         140.7400  142.4357  168.0517 C.ar    1  UNL1        0.0665
@<TRIPOS>BOND
     1     1     2    1
     2     2     3    2
     3     2     4   am
     4     4     5    1
     5     5     6    1
     6     6    22    1
     7    22    23    1
     8    23    24   ar
     9    24    25   ar
    10    25    26   ar
    11    26    27   ar
    12    27    28    1
    13    27    29   ar
    14     6     7    1
    15     7     8    1
    16     8     9    1
    17     9    10    2
    18     9    11   am
    19    11    12    1
    20    12    13    1
    21    13    14    1
    22    14    15    1
    23    15    18    1
    24    18    19    1
    25    19    20    1
    26    20    21    1
    27    15    16    1
    28    16    17    1
    29     8     4    1
    30    17    11    1
    31    29    23   ar
    32    21    18    1
@<TRIPOS>MOLECULE
*****
 29 32 0 0 0
SMALL
GASTEIGER

@<TRIPOS>ATOM
      1 C         143.5507  141.3596  158.2513 C.3     1  UNL1        0.0948
      2 C         142.1994  140.7845  158.5568 C.2     1  UNL1        0.2266
      3 O         141.3080  141.4554  159.5595 O.2     1  UNL1       -0.2748
      4 N         141.7395  139.5385  157.8597 N.am    1  UNL1       -0.2692
      5 C         142.5168  138.7614  156.8389 C.3     1  UNL1        0.1372
      6 C         141.6793  137.5935  156.4093 C.3     1  UNL1        0.1877
      7 C         140.3845  137.6488  157.1645 C.3     1  UNL1        0.0745
      8 C         140.4218  138.8509  158.0610 C.3     1  UNL1        0.1557
      9 C         139.3324  139.2885  158.9946 C.2     1  UNL1        0.2439
     10 O         138.1581  140.0592  158.4683 O.2     1  UNL1       -0.2731
     11 N         139.4173  138.9554  160.4547 N.am    1  UNL1       -0.2767
     12 C         140.6316  138.1824  160.8764 C.3     1  UNL1        0.0949
     13 C         141.0052  137.7024  162.2475 C.3     1  UNL1        0.0388
     14 C         140.2567  137.8770  163.5357 C.3     1  UNL1        0.0739
     15 N         138.9498  138.5746  163.7708 N.3     1  UNL1       -0.2725
     16 C         138.0686  139.2699  162.7759 C.3     1  UNL1        0.0938
     17 C         138.2767  139.4394  161.3001 C.3     1  UNL1        0.1107
     18 C         138.4592  138.5772  165.1884 C.3     1  UNL1        0.0576
     19 C         138.1225  139.6396  166.1922 C.3     1  UNL1        0.0160
     20 C         137.7655  138.5809  167.1930 C.3     1  UNL1        0.0028
     21 C         138.1023  137.5184  166.1891 C.3     1  UNL1        0.0160
     22 O         142.0684  136.5529  155.4013 O.3     1  UNL1       -0.4773
     23 C         142.3703  135.1528  155.8471 C.ar    1  UNL1        0.1407
     24 C         141.6483  133.9952  155.2236 C.ar    1  UNL1        0.0370
     25 C         141.9502  132.5952  155.6693 C.ar    1  UNL1        0.0054
     26 C         142.9739  132.3527  156.7385 C.ar    1  UNL1        0.0298
     27 C         143.6959  133.5103  157.3619 C.ar    1  UNL1        0.1432
     28 F         144.7197  133.2679  158.4311 F       1  UNL1       -0.2041
     29 C         143.3940  134.9104  156.9162 C.ar    1  UNL1        0.0665
@<TRIPOS>BOND
     1     1     2    1
     2     2     3    2
     3     2     4   am
     4     4     5    1
     5     5     6    1
     6     6    22    1
     7    22    23    1
     8    23    24   ar
     9    24    25   ar
    10    25    26   ar
    11    26    27   ar
    12    27    28    1
    13    27    29   ar
    14     6     7    1
    15     7     8    1
    16     8     9    1
    17     9    10    2
    18     9    11   am
    19    11    12    1
    20    12    13    1
    21    13    14    1
    22    14    15    1
    23    15    18    1
    24    18    19    1
    25    19    20    1
    26    20    21    1
    27    15    16    1
    28    16    17    1
    29     8     4    1
    30    17    11    1
    31    29    23   ar
    32    21    18    1
@<TRIPOS>MOLECULE
*****
 29 32 0 0 0
SMALL
GASTEIGER

@<TRIPOS>ATOM
      1 C         138.0606  144.2790  162.8312 C.3     1  UNL1        0.0948
      2 C         138.1177  142.9135  162.2128 C.2     1  UNL1        0.2266
      3 O         138.0598  142.7625  160.7215 O.2     1  UNL1       -0.2748
      4 N         138.2328  141.6991  163.0857 N.am    1  UNL1       -0.2692
      5 C         138.3008  141.6936  164.5841 C.3     1  UNL1        0.1372
      6 C         138.4101  140.2681  165.0379 C.3     1  UNL1        0.1877
      7 C         138.4097  139.3926  163.8199 C.3     1  UNL1        0.0745
      8 C         138.3001  140.2770  162.6134 C.3     1  UNL1        0.1557
      9 C         138.2641  139.8196  161.1853 C.2     1  UNL1        0.2439
     10 O         136.9681  139.8203  160.4300 O.2     1  UNL1       -0.2731
     11 N         139.5240  139.3615  160.5125 N.am    1  UNL1       -0.2767
     12 C         140.7636  139.4003  161.3563 C.3     1  UNL1        0.0949
     13 C         142.1630  139.0124  160.9809 C.3     1  UNL1        0.0388
     14 C         142.6686  138.4898  159.6688 C.3     1  UNL1        0.0739
     15 N         141.8996  138.2261  158.4083 N.3     1  UNL1       -0.2725
     16 C         140.4351  138.4198  158.1484 C.3     1  UNL1        0.0938
     17 C         139.3778  138.9251  159.0848 C.3     1  UNL1        0.1107
     18 C         142.7011  137.6989  157.2551 C.3     1  UNL1        0.0576
     19 C         143.1191  136.3358  156.7892 C.3     1  UNL1        0.0160
     20 C         143.8345  136.9534  155.6244 C.3     1  UNL1        0.0028
     21 C         143.4165  138.3165  156.0904 C.3     1  UNL1        0.0160
     22 O         138.5035  139.8002  166.4601 O.3     1  UNL1       -0.4773
     23 C         139.8351  139.7560  167.1492 C.ar    1  UNL1        0.1407
     24 C         139.9278  140.0338  168.6203 C.ar    1  UNL1        0.0370
     25 C         141.2593  139.9895  169.3095 C.ar    1  UNL1        0.0054
     26 C         142.4982  139.6675  168.5275 C.ar    1  UNL1        0.0298
     27 C         142.4055  139.3897  167.0564 C.ar    1  UNL1        0.1432
     28 F         143.6444  139.0677  166.2743 F       1  UNL1       -0.2041
     29 C         141.0739  139.4340  166.3673 C.ar    1  UNL1        0.0665
@<TRIPOS>BOND
     1     1     2    1
     2     2     3    2
     3     2     4   am
     4     4     5    1
     5     5     6    1
     6     6    22    1
     7    22    23    1
     8    23    24   ar
     9    24    25   ar
    10    25    26   ar
    11    26    27   ar
    12    27    28    1
    13    27    29   ar
    14     6     7    1
    15     7     8    1
    16     8     9    1
    17     9    10    2
    18     9    11   am
    19    11    12    1
    20    12    13    1
    21    13    14    1
    22    14    15    1
    23    15    18    1
    24    18    19    1
    25    19    20    1
    26    20    21    1
    27    15    16    1
    28    16    17    1
    29     8     4    1
    30    17    11    1
    31    29    23   ar
    32    21    18    1
@<TRIPOS>MOLECULE
*****
 29 32 0 0 0
SMALL
GASTEIGER

@<TRIPOS>ATOM
      1 C         137.2654  141.3486  163.0227 C.3     1  UNL1        0.0948
      2 C         138.1467  142.4801  162.5833 C.2     1  UNL1        0.2266
      3 O         137.8604  143.1983  161.2979 O.2     1  UNL1       -0.2748
      4 N         139.3144  142.8935  163.4294 N.am    1  UNL1       -0.2692
      5 C         139.7227  142.2725  164.7323 C.3     1  UNL1        0.1372
      6 C         140.9393  142.9956  165.2292 C.3     1  UNL1        0.1877
      7 C         141.2829  144.0635  164.2334 C.3     1  UNL1        0.0745
      8 C         140.2785  144.0003  163.1210 C.3     1  UNL1        0.1557
      9 C         140.2445  144.8882  161.9125 C.2     1  UNL1        0.2439
     10 O         139.5601  146.2213  161.9803 O.2     1  UNL1       -0.2731
     11 N         140.8948  144.4431  160.6362 N.am    1  UNL1       -0.2767
     12 C         141.5507  143.0947  160.6757 C.3     1  UNL1        0.0949
     13 C         142.2770  142.3754  159.5780 C.3     1  UNL1        0.0388
     14 C         142.5268  142.8269  158.1695 C.3     1  UNL1        0.0739
     15 N         142.1120  144.1092  157.5110 N.3     1  UNL1       -0.2725
     16 C         141.3449  145.2566  158.0982 C.3     1  UNL1        0.0938
     17 C         140.8032  145.4053  159.4891 C.3     1  UNL1        0.1107
     18 C         142.5179  144.2645  156.0753 C.3     1  UNL1        0.0576
     19 C         143.4902  143.5719  155.1672 C.3     1  UNL1        0.0160
     20 C         143.0920  144.4841  154.0451 C.3     1  UNL1        0.0028
     21 C         142.1196  145.1768  154.9533 C.3     1  UNL1        0.0160
     22 O         141.6821  142.7023  166.4990 O.3     1  UNL1       -0.4773
     23 C         140.9558  142.1203  167.6754 C.ar    1  UNL1        0.1407
     24 C         140.6566  140.6511  167.7202 C.ar    1  UNL1        0.0370
     25 C         139.9303  140.0692  168.8965 C.ar    1  UNL1        0.0054
     26 C         139.5033  140.9563  170.0281 C.ar    1  UNL1        0.0298
     27 C         139.8025  142.4255  169.9833 C.ar    1  UNL1        0.1432
     28 F         139.3754  143.3127  171.1150 F       1  UNL1       -0.2041
     29 C         140.5287  143.0074  168.8070 C.ar    1  UNL1        0.0665
@<TRIPOS>BOND
     1     1     2    1
     2     2     3    2
     3     2     4   am
     4     4     5    1
     5     5     6    1
     6     6    22    1
     7    22    23    1
     8    23    24   ar
     9    24    25   ar
    10    25    26   ar
    11    26    27   ar
    12    27    28    1
    13    27    29   ar
    14     6     7    1
    15     7     8    1
    16     8     9    1
    17     9    10    2
    18     9    11   am
    19    11    12    1
    20    12    13    1
    21    13    14    1
    22    14    15    1
    23    15    18    1
    24    18    19    1
    25    19    20    1
    26    20    21    1
    27    15    16    1
    28    16    17    1
    29     8     4    1
    30    17    11    1
    31    29    23   ar
    32    21    18    1
@<TRIPOS>MOLECULE
*****
 29 32 0 0 0
SMALL
GASTEIGER

@<TRIPOS>ATOM
      1 C         145.6664  141.7821  163.4175 C.3     1  UNL1        0.0948
      2 C         144.4593  142.6449  163.1969 C.2     1  UNL1        0.2266
      3 O         144.4897  143.7256  162.1571 O.2     1  UNL1       -0.2748
      4 N         143.2218  142.4270  164.0162 N.am    1  UNL1       -0.2692
      5 C         143.0440  141.3911  165.0864 C.3     1  UNL1        0.1372
      6 C         141.6573  141.5306  165.6407 C.3     1  UNL1        0.1877
      7 C         140.9779  142.6526  164.9130 C.3     1  UNL1        0.0745
      8 C         141.9449  143.2066  163.9090 C.3     1  UNL1        0.1557
      9 C         141.6811  144.3411  162.9638 C.2     1  UNL1        0.2439
     10 O         141.8901  145.7566  163.4142 O.2     1  UNL1       -0.2731
     11 N         141.2084  144.0602  161.5683 N.am    1  UNL1       -0.2767
     12 C         141.0318  142.6119  161.2201 C.3     1  UNL1        0.0949
     13 C         140.5780  142.0104  159.9231 C.3     1  UNL1        0.0388
     14 C         140.1887  142.7087  158.6539 C.3     1  UNL1        0.0739
     15 N         140.1571  144.1809  158.3682 N.3     1  UNL1       -0.2725
     16 C         140.5070  145.3184  159.2812 C.3     1  UNL1        0.0938
     17 C         140.9749  145.2647  160.7054 C.3     1  UNL1        0.1107
     18 C         139.7175  144.5665  156.9869 C.3     1  UNL1        0.0576
     19 C         139.2426  143.8176  155.7772 C.3     1  UNL1        0.0160
     20 C         139.0958  145.1119  155.0334 C.3     1  UNL1        0.0028
     21 C         139.5708  145.8609  156.2432 C.3     1  UNL1        0.0160
     22 O         141.0554  140.6947  166.7312 O.3     1  UNL1       -0.4773
     23 C         140.1234  139.5709  166.3871 C.ar    1  UNL1        0.1407
     24 C         140.4538  138.6419  165.2568 C.ar    1  UNL1        0.0370
     25 C         139.5219  137.5181  164.9127 C.ar    1  UNL1        0.0054
     26 C         138.2594  137.3233  165.6989 C.ar    1  UNL1        0.0298
     27 C         137.9289  138.2524  166.8293 C.ar    1  UNL1        0.1432
     28 F         136.6664  138.0576  167.6155 F       1  UNL1       -0.2041
     29 C         138.8610  139.3762  167.1733 C.ar    1  UNL1        0.0665
@<TRIPOS>BOND
     1     1     2    1
     2     2     3    2
     3     2     4   am
     4     4     5    1
     5     5     6    1
     6     6    22    1
     7    22    23    1
     8    23    24   ar
     9    24    25   ar
    10    25    26   ar
    11    26    27   ar
    12    27    28    1
    13    27    29   ar
    14     6     7    1
    15     7     8    1
    16     8     9    1
    17     9    10    2
    18     9    11   am
    19    11    12    1
    20    12    13    1
    21    13    14    1
    22    14    15    1
    23    15    18    1
    24    18    19    1
    25    19    20    1
    26    20    21    1
    27    15    16    1
    28    16    17    1
    29     8     4    1
    30    17    11    1
    31    29    23   ar
    32    21    18    1
@<TRIPOS>MOLECULE
*****
 29 32 0 0 0
SMALL
GASTEIGER

@<TRIPOS>ATOM
      1 C         137.6995  144.3635  163.0635 C.3     1  UNL1        0.0948
      2 C         137.9804  143.0915  162.3195 C.2     1  UNL1        0.2266
      3 O         138.0960  143.1072  160.8241 O.2     1  UNL1       -0.2748
      4 N         138.1457  141.8039  163.0711 N.am    1  UNL1       -0.2692
      5 C         138.0577  141.6339  164.5588 C.3     1  UNL1        0.1372
      6 C         138.2856  140.1853  164.8741 C.3     1  UNL1        0.1877
      7 C         138.5146  139.4600  163.5812 C.3     1  UNL1        0.0745
      8 C         138.4281  140.4604  162.4669 C.3     1  UNL1        0.1557
      9 C         138.5948  140.1685  161.0051 C.2     1  UNL1        0.2439
     10 O         137.4059  139.7780  160.1779 O.2     1  UNL1       -0.2731
     11 N         139.9502  140.2670  160.3703 N.am    1  UNL1       -0.2767
     12 C         141.0701  140.6648  161.2855 C.3     1  UNL1        0.0949
     13 C         142.5230  140.8485  160.9608 C.3     1  UNL1        0.0388
     14 C         143.2147  140.6799  159.6405 C.3     1  UNL1        0.0739
     15 N         142.6246  140.2859  158.3190 N.3     1  UNL1       -0.2725
     16 C         141.1969  139.9632  157.9914 C.3     1  UNL1        0.0938
     17 C         140.0066  139.9548  158.9043 C.3     1  UNL1        0.1107
     18 C         143.5898  140.2037  157.1737 C.3     1  UNL1        0.0576
     19 C         143.5590  139.5973  155.8022 C.3     1  UNL1        0.0160
     20 C         144.9547  140.0875  155.5541 C.3     1  UNL1        0.0028
     21 C         144.9855  140.6939  156.9258 C.3     1  UNL1        0.0160
     22 O         138.2848  139.5699  166.2421 O.3     1  UNL1       -0.4773
     23 C         139.4939  139.6941  167.1211 C.ar    1  UNL1        0.1407
     24 C         140.8668  139.5665  166.5305 C.ar    1  UNL1        0.0370
     25 C         142.0758  139.6907  167.4094 C.ar    1  UNL1        0.0054
     26 C         141.9121  139.9425  168.8790 C.ar    1  UNL1        0.0298
     27 C         140.5392  140.0701  169.4696 C.ar    1  UNL1        0.1432
     28 F         140.3754  140.3219  170.9393 F       1  UNL1       -0.2041
     29 C         139.3301  139.9459  168.5906 C.ar    1  UNL1        0.0665
@<TRIPOS>BOND
     1     1     2    1
     2     2     3    2
     3     2     4   am
     4     4     5    1
     5     5     6    1
     6     6    22    1
     7    22    23    1
     8    23    24   ar
     9    24    25   ar
    10    25    26   ar
    11    26    27   ar
    12    27    28    1
    13    27    29   ar
    14     6     7    1
    15     7     8    1
    16     8     9    1
    17     9    10    2
    18     9    11   am
    19    11    12    1
    20    12    13    1
    21    13    14    1
    22    14    15    1
    23    15    18    1
    24    18    19    1
    25    19    20    1
    26    20    21    1
    27    15    16    1
    28    16    17    1
    29     8     4    1
    30    17    11    1
    31    29    23   ar
    32    21    18    1
@<TRIPOS>MOLECULE
*****
 29 32 0 0 0
SMALL
GASTEIGER

@<TRIPOS>ATOM
      1 C         138.3096  141.2409  159.8167 C.3     1  UNL1        0.0948
      2 C         138.6737  142.0764  161.0081 C.2     1  UNL1        0.2266
      3 O         138.1616  141.7063  162.3685 O.2     1  UNL1       -0.2748
      4 N         139.5498  143.2822  160.8390 N.am    1  UNL1       -0.2692
      5 C         140.1339  143.7736  159.5477 C.3     1  UNL1        0.1372
      6 C         140.9407  145.0033  159.8421 C.3     1  UNL1        0.1877
      7 C         140.8553  145.2720  161.3154 C.3     1  UNL1        0.0745
      8 C         139.9956  144.2083  161.9315 C.3     1  UNL1        0.1557
      9 C         139.6436  144.0912  163.3848 C.2     1  UNL1        0.2439
     10 O         138.3714  144.6966  163.8995 O.2     1  UNL1       -0.2731
     11 N         140.5639  143.3689  164.3236 N.am    1  UNL1       -0.2767
     12 C         141.8081  142.8014  163.7073 C.3     1  UNL1        0.0949
     13 C         142.9139  142.0345  164.3696 C.3     1  UNL1        0.0388
     14 C         143.0487  141.6455  165.8121 C.3     1  UNL1        0.0739
     15 N         142.1109  141.9274  166.9483 N.3     1  UNL1       -0.2725
     16 C         140.8068  142.6680  166.9228 C.3     1  UNL1        0.0938
     17 C         140.1183  143.3095  165.7547 C.3     1  UNL1        0.1107
     18 C         142.5332  141.3989  168.2871 C.3     1  UNL1        0.0576
     19 C         142.5640  140.0446  168.9311 C.3     1  UNL1        0.0160
     20 C         143.1303  140.6515  170.1804 C.3     1  UNL1        0.0028
     21 C         143.0995  142.0059  169.5364 C.3     1  UNL1        0.0160
     22 O         141.6997  145.8209  158.8393 O.3     1  UNL1       -0.4773
     23 C         141.2834  145.8160  157.3983 C.ar    1  UNL1        0.1407
     24 C         142.1343  145.1251  156.3742 C.ar    1  UNL1        0.0370
     25 C         141.7181  145.1201  154.9332 C.ar    1  UNL1        0.0054
     26 C         140.4510  145.8060  154.5161 C.ar    1  UNL1        0.0298
     27 C         139.6001  146.4969  155.5402 C.ar    1  UNL1        0.1432
     28 F         138.3329  147.1829  155.1232 F       1  UNL1       -0.2041
     29 C         140.0164  146.5018  156.9813 C.ar    1  UNL1        0.0665
@<TRIPOS>BOND
     1     1     2    1
     2     2     3    2
     3     2     4   am
     4     4     5    1
     5     5     6    1
     6     6    22    1
     7    22    23    1
     8    23    24   ar
     9    24    25   ar
    10    25    26   ar
    11    26    27   ar
    12    27    28    1
    13    27    29   ar
    14     6     7    1
    15     7     8    1
    16     8     9    1
    17     9    10    2
    18     9    11   am
    19    11    12    1
    20    12    13    1
    21    13    14    1
    22    14    15    1
    23    15    18    1
    24    18    19    1
    25    19    20    1
    26    20    21    1
    27    15    16    1
    28    16    17    1
    29     8     4    1
    30    17    11    1
    31    29    23   ar
    32    21    18    1
@<TRIPOS>MOLECULE
*****
 29 32 0 0 0
SMALL
GASTEIGER

@<TRIPOS>ATOM
      1 C         138.0145  143.6285  162.5256 C.3     1  UNL1        0.0948
      2 C         139.4972  143.5568  162.3092 C.2     1  UNL1        0.2266
      3 O         140.1027  144.1382  161.0661 O.2     1  UNL1       -0.2748
      4 N         140.3743  142.9036  163.3359 N.am    1  UNL1       -0.2692
      5 C         139.9144  142.2817  164.6211 C.3     1  UNL1        0.1372
      6 C         141.1210  141.7514  165.3372 C.3     1  UNL1        0.1877
      7 C         142.3267  142.0457  164.4946 C.3     1  UNL1        0.0745
      8 C         141.8650  142.7578  163.2577 C.3     1  UNL1        0.1557
      9 C         142.7406  143.2395  162.1391 C.2     1  UNL1        0.2439
     10 O         143.3258  144.6199  162.1858 O.2     1  UNL1       -0.2731
     11 N         143.0310  142.3409  160.9737 N.am    1  UNL1       -0.2767
     12 C         142.3972  140.9824  161.0255 C.3     1  UNL1        0.0949
     13 C         142.4926  139.8671  160.0271 C.3     1  UNL1        0.0388
     14 C         143.2455  139.8349  158.7301 C.3     1  UNL1        0.0739
     15 N         144.0889  140.9099  158.1113 N.3     1  UNL1       -0.2725
     16 C         144.3876  142.2827  158.6366 C.3     1  UNL1        0.0938
     17 C         143.9168  142.9196  159.9105 C.3     1  UNL1        0.1107
     18 C         144.7164  140.5667  156.7928 C.3     1  UNL1        0.0576
     19 C         145.9479  141.0064  156.0578 C.3     1  UNL1        0.0160
     20 C         145.6039  140.0815  154.9282 C.3     1  UNL1        0.0028
     21 C         144.3724  139.6418  155.6632 C.3     1  UNL1        0.0160
     22 O         141.1220  141.0500  166.6631 O.3     1  UNL1       -0.4773
     23 C         141.5458  141.7850  167.9001 C.ar    1  UNL1        0.1407
     24 C         140.5297  142.5268  168.7170 C.ar    1  UNL1        0.0370
     25 C         140.9534  143.2618  169.9539 C.ar    1  UNL1        0.0054
     26 C         142.3933  143.2551  170.3741 C.ar    1  UNL1        0.0298
     27 C         143.4095  142.5133  169.5573 C.ar    1  UNL1        0.1432
     28 F         144.8494  142.5065  169.9774 F       1  UNL1       -0.2041
     29 C         142.9857  141.7783  168.3203 C.ar    1  UNL1        0.0665
@<TRIPOS>BOND
     1     1     2    1
     2     2     3    2
     3     2     4   am
     4     4     5    1
     5     5     6    1
     6     6    22    1
     7    22    23    1
     8    23    24   ar
     9    24    25   ar
    10    25    26   ar
    11    26    27   ar
    12    27    28    1
    13    27    29   ar
    14     6     7    1
    15     7     8    1
    16     8     9    1
    17     9    10    2
    18     9    11   am
    19    11    12    1
    20    12    13    1
    21    13    14    1
    22    14    15    1
    23    15    18    1
    24    18    19    1
    25    19    20    1
    26    20    21    1
    27    15    16    1
    28    16    17    1
    29     8     4    1
    30    17    11    1
    31    29    23   ar
    32    21    18    1
@<TRIPOS>MOLECULE
*****
 29 32 0 0 0
SMALL
GASTEIGER

@<TRIPOS>ATOM
      1 C         140.1394  144.7957  159.2161 C.3     1  UNL1        0.0948
      2 C         139.6620  143.3931  158.9813 C.2     1  UNL1        0.2266
      3 O         139.8762  142.7414  157.6474 O.2     1  UNL1       -0.2748
      4 N         138.9705  142.6423  160.0805 N.am    1  UNL1       -0.2692
      5 C         138.6869  143.1605  161.4592 C.3     1  UNL1        0.1372
      6 C         137.9823  142.0800  162.2247 C.3     1  UNL1        0.1877
      7 C         137.8304  140.8940  161.3190 C.3     1  UNL1        0.0745
      8 C         138.4411  141.2416  159.9937 C.3     1  UNL1        0.1557
      9 C         138.5103  140.3456  158.7927 C.2     1  UNL1        0.2439
     10 O         137.3834  140.3299  157.8028 O.2     1  UNL1       -0.2731
     11 N         139.7063  139.4653  158.5816 N.am    1  UNL1       -0.2767
     12 C         140.7755  139.5575  159.6295 C.3     1  UNL1        0.0949
     13 C         142.0774  138.8165  159.7052 C.3     1  UNL1        0.0388
     14 C         142.6317  137.8001  158.7514 C.3     1  UNL1        0.0739
     15 N         142.0210  137.2738  157.4865 N.3     1  UNL1       -0.2725
     16 C         140.7052  137.6338  156.8629 C.3     1  UNL1        0.0938
     17 C         139.6750  138.6092  157.3503 C.3     1  UNL1        0.1107
     18 C         142.8336  136.2522  156.7474 C.3     1  UNL1        0.0576
     19 C         143.1741  134.8078  156.9655 C.3     1  UNL1        0.0160
     20 C         143.9828  134.8077  155.7022 C.3     1  UNL1        0.0028
     21 C         143.6423  136.2522  155.4841 C.3     1  UNL1        0.0160
     22 O         137.5122  142.1697  163.6463 O.3     1  UNL1       -0.4773
     23 C         138.3534  141.6034  164.7516 C.ar    1  UNL1        0.1407
     24 C         138.1272  140.1967  165.2209 C.ar    1  UNL1        0.0370
     25 C         138.9683  139.6304  166.3261 C.ar    1  UNL1        0.0054
     26 C         140.0357  140.4707  166.9622 C.ar    1  UNL1        0.0298
     27 C         140.2619  141.8773  166.4930 C.ar    1  UNL1        0.1432
     28 F         141.3293  142.7177  167.1290 F       1  UNL1       -0.2041
     29 C         139.4207  142.4436  165.3877 C.ar    1  UNL1        0.0665
@<TRIPOS>BOND
     1     1     2    1
     2     2     3    2
     3     2     4   am
     4     4     5    1
     5     5     6    1
     6     6    22    1
     7    22    23    1
     8    23    24   ar
     9    24    25   ar
    10    25    26   ar
    11    26    27   ar
    12    27    28    1
    13    27    29   ar
    14     6     7    1
    15     7     8    1
    16     8     9    1
    17     9    10    2
    18     9    11   am
    19    11    12    1
    20    12    13    1
    21    13    14    1
    22    14    15    1
    23    15    18    1
    24    18    19    1
    25    19    20    1
    26    20    21    1
    27    15    16    1
    28    16    17    1
    29     8     4    1
    30    17    11    1
    31    29    23   ar
    32    21    18    1
