@<TRIPOS>MOLECULE
*****
 40 44 0 0 0
SMALL
GASTEIGER

@<TRIPOS>ATOM
      1 C         141.6701  143.6229  159.7906 C.3     1  UNL1        0.0832
      2 C         142.3839  143.4815  158.4790 C.3     1  UNL1        0.0374
      3 C         141.9946  144.3456  157.3163 C.3     1  UNL1        0.0738
      4 N         140.8915  145.3510  157.4653 N.3     1  UNL1       -0.2734
      5 C         140.1776  145.4924  158.7769 C.3     1  UNL1        0.0828
      6 C         140.5669  144.6283  159.9396 C.3     1  UNL1        0.1103
      7 C         140.5021  146.2151  156.3025 C.3     1  UNL1        0.0575
      8 C         141.1909  146.0484  154.9805 C.3     1  UNL1        0.0160
      9 C         140.8016  146.9125  153.8178 C.3     1  UNL1        0.0014
     10 C         139.7235  147.9431  153.9771 C.3     1  UNL1        0.0001
     11 C         139.0347  148.1098  155.2992 C.3     1  UNL1        0.0014
     12 C         139.4240  147.2457  156.4619 C.3     1  UNL1        0.0160
     13 O         143.4595  144.7138  161.9372 O.2     1  UNL1       -0.2684
     14 C         142.9541  143.3043  162.0267 C.2     1  UNL1        0.2669
     15 N         142.0594  142.7589  160.9534 N.am    1  UNL1       -0.3006
     16 H         141.7277  141.8338  161.0120 H       1  UNL1        0.1497
     17 C         143.3434  142.4403  163.1894 C.ar    1  UNL1        0.1761
     18 C         142.7606  142.5050  164.5700 C.ar    1  UNL1        0.0673
     19 C         143.4408  141.4646  165.4095 C.ar    1  UNL1        0.1792
     20 O         144.4442  140.7570  164.5477 O.2     1  UNL1       -0.3532
     21 N         144.3839  141.3600  163.1756 N.ar    1  UNL1       -0.0723
     22 C         143.1661  141.1815  166.8567 C.ar    1  UNL1        0.0648
     23 C         143.3014  142.2757  167.8738 C.ar    1  UNL1        0.0077
     24 C         143.0266  141.9927  169.3210 C.ar    1  UNL1        0.0299
     25 C         142.6166  140.6154  169.7511 C.ar    1  UNL1        0.1424
     26 F         142.3419  140.3323  171.1983 F       1  UNL1       -0.2041
     27 C         142.4813  139.5213  168.7341 C.ar    1  UNL1        0.0593
     28 C         142.7561  139.8044  167.2869 C.ar    1  UNL1        0.1453
     29 F         142.6208  138.7101  166.2698 F       1  UNL1       -0.2040
     30 C         139.8531  144.7697  161.2513 C.2     1  UNL1        0.2252
     31 O         140.2445  145.8597  162.2045 O.2     1  UNL1       -0.2750
     32 N         138.7478  143.8210  161.6097 N.am    1  UNL1       -0.3004
     33 H         138.4910  143.1056  160.9840 H       1  UNL1        0.1497
     34 C         138.0340  143.9623  162.9213 C.3     1  UNL1        0.1163
     35 C         138.5982  143.3224  164.1550 C.ar    1  UNL1       -0.0026
     36 C         138.4944  141.8380  164.3445 C.ar    1  UNL1       -0.0026
     37 C         139.0587  141.1981  165.5782 C.ar    1  UNL1       -0.0003
     38 C         139.7268  142.0425  166.6225 C.ar    1  UNL1       -0.0000
     39 C         139.8306  143.5269  166.4331 C.ar    1  UNL1       -0.0003
     40 C         139.2664  144.1669  165.1994 C.ar    1  UNL1       -0.0026
@<TRIPOS>BOND
     1    13    14    2
     2    14    15   am
     3     1    15    1
     4     1     2    1
     5     2     3    1
     6     3     4    1
     7     4     7    1
     8     7     8    1
     9     8     9    1
    10     9    10    1
    11    10    11    1
    12    11    12    1
    13     4     5    1
    14     5     6    1
    15     6    30    1
    16    30    31    2
    17    30    32   am
    18    32    34    1
    19    34    35    1
    20    35    36   ar
    21    36    37   ar
    22    37    38   ar
    23    38    39   ar
    24    39    40   ar
    25    14    17    1
    26    17    18   ar
    27    18    19   ar
    28    19    22    1
    29    22    23   ar
    30    23    24   ar
    31    24    25   ar
    32    25    26    1
    33    25    27   ar
    34    27    28   ar
    35    28    29    1
    36    19    20   ar
    37    20    21   ar
    38     6     1    1
    39    40    35   ar
    40    21    17   ar
    41    12     7    1
    42    28    22   ar
    43    15    16    1
    44    32    33    1
@<TRIPOS>MOLECULE
*****
 40 44 0 0 0
SMALL
GASTEIGER

@<TRIPOS>ATOM
      1 C         141.7768  138.7128  160.7184 C.3     1  UNL1        0.0832
      2 C         142.8484  137.9380  160.0104 C.3     1  UNL1        0.0374
      3 C         142.6444  137.5023  158.5896 C.3     1  UNL1        0.0738
      4 N         141.3688  137.8415  157.8769 N.3     1  UNL1       -0.2734
      5 C         140.2973  138.6164  158.5850 C.3     1  UNL1        0.0828
      6 C         140.5013  139.0520  160.0057 C.3     1  UNL1        0.1103
      7 C         141.1649  137.4058  156.4561 C.3     1  UNL1        0.0575
      8 C         139.7770  137.2892  155.8993 C.3     1  UNL1        0.0160
      9 C         139.5730  136.8535  154.4785 C.3     1  UNL1        0.0014
     10 C         140.7570  136.5344  153.6146 C.3     1  UNL1        0.0001
     11 C         142.1449  136.6511  154.1715 C.3     1  UNL1        0.0014
     12 C         142.3489  137.0867  155.5922 C.3     1  UNL1        0.0160
     13 O         140.9986  136.8921  162.9721 O.2     1  UNL1       -0.2684
     14 C         141.5917  138.2382  163.2661 C.2     1  UNL1        0.2669
     15 N         141.9808  139.1485  162.1392 N.am    1  UNL1       -0.3006
     16 H         142.3701  140.0320  162.3321 H       1  UNL1        0.1497
     17 C         141.7956  138.6738  164.6868 C.ar    1  UNL1        0.1761
     18 C         140.9381  139.6448  165.4430 C.ar    1  UNL1        0.0673
     19 C         141.5054  139.7860  166.8244 C.ar    1  UNL1        0.1792
     20 O         142.7135  138.9023  166.9219 O.2     1  UNL1       -0.3532
     21 N         142.8929  138.2149  165.6008 N.ar    1  UNL1       -0.0723
     22 C         140.9603  140.6579  167.9165 C.ar    1  UNL1        0.0648
     23 C         139.9113  140.1261  168.8476 C.ar    1  UNL1        0.0077
     24 C         139.3662  140.9980  169.9397 C.ar    1  UNL1        0.0299
     25 C         139.8701  142.4016  170.1007 C.ar    1  UNL1        0.1424
     26 F         139.3250  143.2735  171.1928 F       1  UNL1       -0.2041
     27 C         140.9190  142.9333  169.1697 C.ar    1  UNL1        0.0593
     28 C         141.4641  142.0615  168.0776 C.ar    1  UNL1        0.1453
     29 F         142.5131  142.5933  167.1465 F       1  UNL1       -0.2040
     30 C         139.4298  139.8270  160.7138 C.2     1  UNL1        0.2252
     31 O         138.3370  139.1022  161.4421 O.2     1  UNL1       -0.2750
     32 N         139.4510  141.3267  160.6935 N.am    1  UNL1       -0.3004
     33 H         140.1683  141.8024  160.2155 H       1  UNL1        0.1497
     34 C         138.3795  142.1016  161.4016 C.3     1  UNL1        0.1163
     35 C         138.6721  142.7521  162.7212 C.ar    1  UNL1       -0.0026
     36 C         137.6225  143.5846  163.3960 C.ar    1  UNL1       -0.0026
     37 C         137.9150  144.2351  164.7156 C.ar    1  UNL1       -0.0003
     38 C         139.2571  144.0531  165.3603 C.ar    1  UNL1       -0.0000
     39 C         140.3067  143.2206  164.6855 C.ar    1  UNL1       -0.0003
     40 C         140.0142  142.5701  163.3659 C.ar    1  UNL1       -0.0026
@<TRIPOS>BOND
     1    13    14    2
     2    14    15   am
     3     1    15    1
     4     1     2    1
     5     2     3    1
     6     3     4    1
     7     4     7    1
     8     7     8    1
     9     8     9    1
    10     9    10    1
    11    10    11    1
    12    11    12    1
    13     4     5    1
    14     5     6    1
    15     6    30    1
    16    30    31    2
    17    30    32   am
    18    32    34    1
    19    34    35    1
    20    35    36   ar
    21    36    37   ar
    22    37    38   ar
    23    38    39   ar
    24    39    40   ar
    25    14    17    1
    26    17    18   ar
    27    18    19   ar
    28    19    22    1
    29    22    23   ar
    30    23    24   ar
    31    24    25   ar
    32    25    26    1
    33    25    27   ar
    34    27    28   ar
    35    28    29    1
    36    19    20   ar
    37    20    21   ar
    38     6     1    1
    39    40    35   ar
    40    21    17   ar
    41    12     7    1
    42    28    22   ar
    43    15    16    1
    44    32    33    1
@<TRIPOS>MOLECULE
*****
 40 44 0 0 0
SMALL
GASTEIGER

@<TRIPOS>ATOM
      1 C         140.8292  138.0828  156.9493 C.3     1  UNL1        0.0832
      2 C         140.0328  137.4329  155.8570 C.3     1  UNL1        0.0374
      3 C         140.5111  136.1518  155.2406 C.3     1  UNL1        0.0738
      4 N         141.7858  135.5206  155.7165 N.3     1  UNL1       -0.2734
      5 C         142.5823  136.1705  156.8088 C.3     1  UNL1        0.0828
      6 C         142.1040  137.4516  157.4252 C.3     1  UNL1        0.1103
      7 C         142.2641  134.2394  155.1001 C.3     1  UNL1        0.0575
      8 C         141.8066  133.8521  153.7251 C.3     1  UNL1        0.0160
      9 C         142.2849  132.5709  153.1087 C.3     1  UNL1        0.0014
     10 C         143.2207  131.6772  153.8673 C.3     1  UNL1        0.0001
     11 C         143.6782  132.0646  155.2423 C.3     1  UNL1        0.0014
     12 C         143.1999  133.3457  155.8587 C.3     1  UNL1        0.0160
     13 O         139.5654  138.0581  159.6700 O.2     1  UNL1       -0.2684
     14 C         139.7190  139.3516  158.9261 C.2     1  UNL1        0.2669
     15 N         140.3510  139.3640  157.5657 N.am    1  UNL1       -0.3006
     16 H         140.4518  140.2129  157.0775 H       1  UNL1        0.1497
     17 C         139.2408  140.6327  159.5425 C.ar    1  UNL1        0.1761
     18 C         139.3765  141.0217  160.9848 C.ar    1  UNL1        0.0673
     19 C         138.7624  142.3792  161.1586 C.ar    1  UNL1        0.1792
     20 O         138.2471  142.8291  159.8236 O.2     1  UNL1       -0.3532
     21 N         138.5428  141.7497  158.8249 N.ar    1  UNL1       -0.0723
     22 C         138.6783  143.1511  162.4420 C.ar    1  UNL1        0.0648
     23 C         139.6103  144.3003  162.6884 C.ar    1  UNL1        0.0077
     24 C         139.5263  145.0723  163.9717 C.ar    1  UNL1        0.0299
     25 C         138.5102  144.6950  165.0086 C.ar    1  UNL1        0.1424
     26 F         138.4262  145.4670  166.2920 F       1  UNL1       -0.2041
     27 C         137.5783  143.5459  164.7623 C.ar    1  UNL1        0.0593
     28 C         137.6623  142.7739  163.4789 C.ar    1  UNL1        0.1453
     29 F         136.7303  141.6247  163.2325 F       1  UNL1       -0.2040
     30 C         142.9005  138.1016  158.5176 C.2     1  UNL1        0.2252
     31 O         143.8488  139.2173  158.1922 O.2     1  UNL1       -0.2750
     32 N         142.7487  137.6358  159.9353 N.am    1  UNL1       -0.3004
     33 H         142.1262  136.9035  160.1489 H       1  UNL1        0.1497
     34 C         143.5451  138.2857  161.0277 C.3     1  UNL1        0.1163
     35 C         143.0338  138.2731  162.4378 C.ar    1  UNL1       -0.0026
     36 C         141.7163  137.6287  162.7522 C.ar    1  UNL1       -0.0026
     37 C         141.2050  137.6162  164.1623 C.ar    1  UNL1       -0.0003
     38 C         142.0113  138.2479  165.2581 C.ar    1  UNL1       -0.0000
     39 C         143.3289  138.8924  164.9437 C.ar    1  UNL1       -0.0003
     40 C         143.8402  138.9049  163.5336 C.ar    1  UNL1       -0.0026
@<TRIPOS>BOND
     1    13    14    2
     2    14    15   am
     3     1    15    1
     4     1     2    1
     5     2     3    1
     6     3     4    1
     7     4     7    1
     8     7     8    1
     9     8     9    1
    10     9    10    1
    11    10    11    1
    12    11    12    1
    13     4     5    1
    14     5     6    1
    15     6    30    1
    16    30    31    2
    17    30    32   am
    18    32    34    1
    19    34    35    1
    20    35    36   ar
    21    36    37   ar
    22    37    38   ar
    23    38    39   ar
    24    39    40   ar
    25    14    17    1
    26    17    18   ar
    27    18    19   ar
    28    19    22    1
    29    22    23   ar
    30    23    24   ar
    31    24    25   ar
    32    25    26    1
    33    25    27   ar
    34    27    28   ar
    35    28    29    1
    36    19    20   ar
    37    20    21   ar
    38     6     1    1
    39    40    35   ar
    40    21    17   ar
    41    12     7    1
    42    28    22   ar
    43    15    16    1
    44    32    33    1
@<TRIPOS>MOLECULE
*****
 40 44 0 0 0
SMALL
GASTEIGER

@<TRIPOS>ATOM
      1 C         143.4234  140.8266  159.0164 C.3     1  UNL1        0.0832
      2 C         143.3715  140.1935  157.6576 C.3     1  UNL1        0.0374
      3 C         144.2727  140.6876  156.5651 C.3     1  UNL1        0.0738
      4 N         145.2257  141.8149  156.8313 N.3     1  UNL1       -0.2734
      5 C         145.2776  142.4481  158.1901 C.3     1  UNL1        0.0828
      6 C         144.3764  141.9539  159.2826 C.3     1  UNL1        0.1103
      7 C         146.1269  142.3090  155.7387 C.3     1  UNL1        0.0575
      8 C         147.5748  141.9173  155.7261 C.3     1  UNL1        0.0160
      9 C         148.4760  142.4114  154.6335 C.3     1  UNL1        0.0014
     10 C         147.9292  143.2972  153.5535 C.3     1  UNL1        0.0001
     11 C         146.4813  143.6889  153.5661 C.3     1  UNL1        0.0014
     12 C         145.5801  143.1948  154.6587 C.3     1  UNL1        0.0160
     13 O         144.2256  138.4505  160.6627 O.2     1  UNL1       -0.2684
     14 C         142.9233  139.1444  160.9322 C.2     1  UNL1        0.2669
     15 N         142.5222  140.3325  160.1090 N.am    1  UNL1       -0.3006
     16 H         141.6675  140.7880  160.2859 H       1  UNL1        0.1497
     17 C         142.0222  138.6503  162.0248 C.ar    1  UNL1        0.1761
     18 C         141.6484  139.4029  163.2674 C.ar    1  UNL1        0.0673
     19 C         140.7318  138.5346  164.0772 C.ar    1  UNL1        0.1792
     20 O         140.5391  137.2453  163.3350 O.2     1  UNL1       -0.3532
     21 N         141.3365  137.3169  162.0666 N.ar    1  UNL1       -0.0723
     22 C         140.1161  138.8926  165.3973 C.ar    1  UNL1        0.0648
     23 C         138.6689  138.5943  165.6554 C.ar    1  UNL1        0.0077
     24 C         138.0532  138.9523  166.9755 C.ar    1  UNL1        0.0299
     25 C         138.8847  139.6086  168.0375 C.ar    1  UNL1        0.1424
     26 F         138.2690  139.9666  169.3576 F       1  UNL1       -0.2041
     27 C         140.3319  139.9068  167.7794 C.ar    1  UNL1        0.0593
     28 C         140.9476  139.5488  166.4593 C.ar    1  UNL1        0.1453
     29 F         142.3948  139.8470  166.2012 F       1  UNL1       -0.2040
     30 C         144.4283  142.5871  160.6415 C.2     1  UNL1        0.2252
     31 O         145.4598  142.1443  161.6364 O.2     1  UNL1       -0.2750
     32 N         143.4485  143.6631  161.0055 N.am    1  UNL1       -0.3004
     33 H         142.7715  143.9537  160.3525 H       1  UNL1        0.1497
     34 C         143.5004  144.2962  162.3643 C.3     1  UNL1        0.1163
     35 C         142.3594  144.1138  163.3207 C.ar    1  UNL1       -0.0026
     36 C         142.4522  143.0891  164.4122 C.ar    1  UNL1       -0.0026
     37 C         141.3112  142.9067  165.3687 C.ar    1  UNL1       -0.0003
     38 C         140.0774  143.7489  165.2337 C.ar    1  UNL1       -0.0000
     39 C         139.9845  144.7736  164.1421 C.ar    1  UNL1       -0.0003
     40 C         141.1255  144.9561  163.1857 C.ar    1  UNL1       -0.0026
@<TRIPOS>BOND
     1    13    14    2
     2    14    15   am
     3     1    15    1
     4     1     2    1
     5     2     3    1
     6     3     4    1
     7     4     7    1
     8     7     8    1
     9     8     9    1
    10     9    10    1
    11    10    11    1
    12    11    12    1
    13     4     5    1
    14     5     6    1
    15     6    30    1
    16    30    31    2
    17    30    32   am
    18    32    34    1
    19    34    35    1
    20    35    36   ar
    21    36    37   ar
    22    37    38   ar
    23    38    39   ar
    24    39    40   ar
    25    14    17    1
    26    17    18   ar
    27    18    19   ar
    28    19    22    1
    29    22    23   ar
    30    23    24   ar
    31    24    25   ar
    32    25    26    1
    33    25    27   ar
    34    27    28   ar
    35    28    29    1
    36    19    20   ar
    37    20    21   ar
    38     6     1    1
    39    40    35   ar
    40    21    17   ar
    41    12     7    1
    42    28    22   ar
    43    15    16    1
    44    32    33    1
@<TRIPOS>MOLECULE
*****
 40 44 0 0 0
SMALL
GASTEIGER

@<TRIPOS>ATOM
      1 C         143.8138  140.5960  157.4086 C.3     1  UNL1        0.0832
      2 C         144.1981  139.8174  156.1855 C.3     1  UNL1        0.0374
      3 C         145.4178  140.2042  155.4027 C.3     1  UNL1        0.0738
      4 N         146.2533  141.3696  155.8431 N.3     1  UNL1       -0.2734
      5 C         145.8690  142.1482  157.0662 C.3     1  UNL1        0.0828
      6 C         144.6493  141.7614  157.8490 C.3     1  UNL1        0.1103
      7 C         147.4730  141.7563  155.0603 C.3     1  UNL1        0.0575
      8 C         148.8211  141.7443  155.7179 C.3     1  UNL1        0.0160
      9 C         150.0409  142.1310  154.9351 C.3     1  UNL1        0.0014
     10 C         149.9124  142.5298  153.4948 C.3     1  UNL1        0.0001
     11 C         148.5642  142.5418  152.8372 C.3     1  UNL1        0.0014
     12 C         147.3446  142.1550  153.6200 C.3     1  UNL1        0.0160
     13 O         144.0996  139.0565  159.9675 O.2     1  UNL1       -0.2684
     14 C         142.7370  139.4395  159.4708 C.2     1  UNL1        0.2669
     15 N         142.5941  140.2093  158.1914 N.am    1  UNL1       -0.3006
     16 H         141.6998  140.4607  157.8653 H       1  UNL1        0.1497
     17 C         141.5173  139.0528  160.2536 C.ar    1  UNL1        0.1761
     18 C         141.3084  139.2669  161.7235 C.ar    1  UNL1        0.0673
     19 C         139.9544  138.7305  162.0823 C.ar    1  UNL1        0.1792
     20 O         139.3264  138.1848  160.8341 O.2     1  UNL1       -0.3532
     21 N         140.2923  138.3840  159.7040 N.ar    1  UNL1       -0.0723
     22 C         139.3368  138.7383  163.4492 C.ar    1  UNL1        0.0648
     23 C         139.2369  137.4641  164.2344 C.ar    1  UNL1        0.0077
     24 C         138.6193  137.4719  165.6013 C.ar    1  UNL1        0.0299
     25 C         138.1016  138.7539  166.1830 C.ar    1  UNL1        0.1424
     26 F         137.4839  138.7617  167.5500 F       1  UNL1       -0.2041
     27 C         138.2014  140.0280  165.3979 C.ar    1  UNL1        0.0593
     28 C         138.8190  140.0202  164.0310 C.ar    1  UNL1        0.1453
     29 F         138.9189  141.2944  163.2458 F       1  UNL1       -0.2040
     30 C         144.2649  142.5401  159.0721 C.2     1  UNL1        0.2252
     31 O         143.3555  143.7267  158.9508 O.2     1  UNL1       -0.2750
     32 N         144.7901  142.1320  160.4166 N.am    1  UNL1       -0.3004
     33 H         145.3870  141.3531  160.4963 H       1  UNL1        0.1497
     34 C         144.4058  142.9105  161.6398 C.3     1  UNL1        0.1163
     35 C         143.7722  142.2111  162.8057 C.ar    1  UNL1       -0.0026
     36 C         144.3749  140.9452  163.3387 C.ar    1  UNL1       -0.0026
     37 C         143.7413  140.2457  164.5046 C.ar    1  UNL1       -0.0003
     38 C         142.5051  140.8122  165.1375 C.ar    1  UNL1       -0.0000
     39 C         141.9023  142.0782  164.6045 C.ar    1  UNL1       -0.0003
     40 C         142.5358  142.7776  163.4386 C.ar    1  UNL1       -0.0026
@<TRIPOS>BOND
     1    13    14    2
     2    14    15   am
     3     1    15    1
     4     1     2    1
     5     2     3    1
     6     3     4    1
     7     4     7    1
     8     7     8    1
     9     8     9    1
    10     9    10    1
    11    10    11    1
    12    11    12    1
    13     4     5    1
    14     5     6    1
    15     6    30    1
    16    30    31    2
    17    30    32   am
    18    32    34    1
    19    34    35    1
    20    35    36   ar
    21    36    37   ar
    22    37    38   ar
    23    38    39   ar
    24    39    40   ar
    25    14    17    1
    26    17    18   ar
    27    18    19   ar
    28    19    22    1
    29    22    23   ar
    30    23    24   ar
    31    24    25   ar
    32    25    26    1
    33    25    27   ar
    34    27    28   ar
    35    28    29    1
    36    19    20   ar
    37    20    21   ar
    38     6     1    1
    39    40    35   ar
    40    21    17   ar
    41    12     7    1
    42    28    22   ar
    43    15    16    1
    44    32    33    1
@<TRIPOS>MOLECULE
*****
 40 44 0 0 0
SMALL
GASTEIGER

@<TRIPOS>ATOM
      1 C         138.7901  141.2953  160.5630 C.3     1  UNL1        0.0832
      2 C         137.9605  140.2686  159.8505 C.3     1  UNL1        0.0374
      3 C         137.4499  140.5452  158.4675 C.3     1  UNL1        0.0738
      4 N         137.7689  141.8485  157.7970 N.3     1  UNL1       -0.2734
      5 C         138.5985  142.8752  158.5094 C.3     1  UNL1        0.0828
      6 C         139.1091  142.5986  159.8924 C.3     1  UNL1        0.1103
      7 C         137.2583  142.1250  156.4139 C.3     1  UNL1        0.0575
      8 C         136.5798  141.0384  155.6337 C.3     1  UNL1        0.0160
      9 C         136.0691  141.3149  154.2506 C.3     1  UNL1        0.0014
     10 C         136.2370  142.6782  153.6478 C.3     1  UNL1        0.0001
     11 C         136.9156  143.7648  154.4281 C.3     1  UNL1        0.0014
     12 C         137.4262  143.4883  155.8111 C.3     1  UNL1        0.0160
     13 O         137.1019  141.9728  162.9485 O.2     1  UNL1       -0.2684
     14 C         138.4566  141.3575  163.1388 C.2     1  UNL1        0.2669
     15 N         139.3007  141.0187  161.9461 N.am    1  UNL1       -0.3006
     16 H         140.1899  140.6149  162.0709 H       1  UNL1        0.1497
     17 C         138.9672  141.0810  164.5219 C.ar    1  UNL1        0.1761
     18 C         139.8287  141.9943  165.3427 C.ar    1  UNL1        0.0673
     19 C         140.0999  141.3204  166.6551 C.ar    1  UNL1        0.1792
     20 O         139.4060  139.9905  166.6453 O.2     1  UNL1       -0.3532
     21 N         138.7060  139.8426  165.3269 N.ar    1  UNL1       -0.0723
     22 C         140.9207  141.8783  167.7797 C.ar    1  UNL1        0.0648
     23 C         140.3458  142.9353  168.6754 C.ar    1  UNL1        0.0077
     24 C         141.1666  143.4932  169.8000 C.ar    1  UNL1        0.0299
     25 C         142.5625  142.9942  170.0290 C.ar    1  UNL1        0.1424
     26 F         143.3834  143.5521  171.1536 F       1  UNL1       -0.2041
     27 C         143.1375  141.9372  169.1334 C.ar    1  UNL1        0.0593
     28 C         142.3166  141.3793  168.0087 C.ar    1  UNL1        0.1453
     29 F         142.8916  140.3223  167.1131 F       1  UNL1       -0.2040
     30 C         139.9387  143.6253  160.6049 C.2     1  UNL1        0.2252
     31 O         139.3086  144.9015  161.0786 O.2     1  UNL1       -0.2750
     32 N         141.3984  143.3759  160.8437 N.am    1  UNL1       -0.3004
     33 H         141.8119  142.5383  160.5328 H       1  UNL1        0.1497
     34 C         142.2280  144.4025  161.5562 C.3     1  UNL1        0.1163
     35 C         142.9051  144.0543  162.8486 C.ar    1  UNL1       -0.0026
     36 C         142.9506  142.6281  163.3109 C.ar    1  UNL1       -0.0026
     37 C         143.6277  142.2798  164.6033 C.ar    1  UNL1       -0.0003
     38 C         144.2594  143.3578  165.4333 C.ar    1  UNL1       -0.0000
     39 C         144.2140  144.7841  164.9710 C.ar    1  UNL1       -0.0003
     40 C         143.5368  145.1323  163.6786 C.ar    1  UNL1       -0.0026
@<TRIPOS>BOND
     1    13    14    2
     2    14    15   am
     3     1    15    1
     4     1     2    1
     5     2     3    1
     6     3     4    1
     7     4     7    1
     8     7     8    1
     9     8     9    1
    10     9    10    1
    11    10    11    1
    12    11    12    1
    13     4     5    1
    14     5     6    1
    15     6    30    1
    16    30    31    2
    17    30    32   am
    18    32    34    1
    19    34    35    1
    20    35    36   ar
    21    36    37   ar
    22    37    38   ar
    23    38    39   ar
    24    39    40   ar
    25    14    17    1
    26    17    18   ar
    27    18    19   ar
    28    19    22    1
    29    22    23   ar
    30    23    24   ar
    31    24    25   ar
    32    25    26    1
    33    25    27   ar
    34    27    28   ar
    35    28    29    1
    36    19    20   ar
    37    20    21   ar
    38     6     1    1
    39    40    35   ar
    40    21    17   ar
    41    12     7    1
    42    28    22   ar
    43    15    16    1
    44    32    33    1
@<TRIPOS>MOLECULE
*****
 40 44 0 0 0
SMALL
GASTEIGER

@<TRIPOS>ATOM
      1 C         140.5920  138.8086  158.9121 C.3     1  UNL1        0.0832
      2 C         139.5220  138.5217  157.9008 C.3     1  UNL1        0.0374
      3 C         139.8049  137.6024  156.7499 C.3     1  UNL1        0.0738
      4 N         141.1578  136.9699  156.6102 N.3     1  UNL1       -0.2734
      5 C         142.2279  137.2567  157.6215 C.3     1  UNL1        0.0828
      6 C         141.9449  138.1761  158.7724 C.3     1  UNL1        0.1103
      7 C         141.4407  136.0505  155.4592 C.3     1  UNL1        0.0575
      8 C         142.3906  134.9025  155.6322 C.3     1  UNL1        0.0160
      9 C         142.6734  133.9831  154.4812 C.3     1  UNL1        0.0014
     10 C         142.0064  134.2117  153.1572 C.3     1  UNL1        0.0001
     11 C         141.0565  135.3598  152.9843 C.3     1  UNL1        0.0014
     12 C         140.7737  136.2791  154.1353 C.3     1  UNL1        0.0160
     13 O         139.8205  137.6769  161.5812 O.2     1  UNL1       -0.2684
     14 C         139.9234  139.1622  161.3977 C.2     1  UNL1        0.2669
     15 N         140.3091  139.7280  160.0631 N.am    1  UNL1       -0.3006
     16 H         140.3767  140.7027  159.9426 H       1  UNL1        0.1497
     17 C         139.6405  140.0815  162.5486 C.ar    1  UNL1        0.1761
     18 C         140.0808  139.8784  163.9681 C.ar    1  UNL1        0.0673
     19 C         139.5801  141.0367  164.7790 C.ar    1  UNL1        0.1792
     20 O         138.8303  141.9557  163.8607 O.2     1  UNL1       -0.3532
     21 N         138.8676  141.3653  162.4822 N.ar    1  UNL1       -0.0723
     22 C         139.7920  141.2403  166.2499 C.ar    1  UNL1        0.0648
     23 C         140.3976  142.5180  166.7507 C.ar    1  UNL1        0.0077
     24 C         140.6095  142.7216  168.2216 C.ar    1  UNL1        0.0299
     25 C         140.2156  141.6475  169.1918 C.ar    1  UNL1        0.1424
     26 F         140.4275  141.8511  170.6627 F       1  UNL1       -0.2041
     27 C         139.6100  140.3699  168.6911 C.ar    1  UNL1        0.0593
     28 C         139.3982  140.1663  167.2201 C.ar    1  UNL1        0.1453
     29 F         138.7925  138.8886  166.7194 F       1  UNL1       -0.2040
     30 C         143.0150  138.4629  159.7838 C.2     1  UNL1        0.2252
     31 O         144.1184  139.4247  159.4560 O.2     1  UNL1       -0.2750
     32 N         142.9815  137.7880  161.1230 N.am    1  UNL1       -0.3004
     33 H         142.2573  137.1568  161.3381 H       1  UNL1        0.1497
     34 C         144.0515  138.0749  162.1343 C.3     1  UNL1        0.1163
     35 C         143.8362  139.1345  163.1740 C.ar    1  UNL1       -0.0026
     36 C         143.5502  138.7448  164.5940 C.ar    1  UNL1       -0.0026
     37 C         143.3349  139.8044  165.6336 C.ar    1  UNL1       -0.0003
     38 C         143.4055  141.2536  165.2534 C.ar    1  UNL1       -0.0000
     39 C         143.6915  141.6433  163.8333 C.ar    1  UNL1       -0.0003
     40 C         143.9068  140.5838  162.7936 C.ar    1  UNL1       -0.0026
@<TRIPOS>BOND
     1    13    14    2
     2    14    15   am
     3     1    15    1
     4     1     2    1
     5     2     3    1
     6     3     4    1
     7     4     7    1
     8     7     8    1
     9     8     9    1
    10     9    10    1
    11    10    11    1
    12    11    12    1
    13     4     5    1
    14     5     6    1
    15     6    30    1
    16    30    31    2
    17    30    32   am
    18    32    34    1
    19    34    35    1
    20    35    36   ar
    21    36    37   ar
    22    37    38   ar
    23    38    39   ar
    24    39    40   ar
    25    14    17    1
    26    17    18   ar
    27    18    19   ar
    28    19    22    1
    29    22    23   ar
    30    23    24   ar
    31    24    25   ar
    32    25    26    1
    33    25    27   ar
    34    27    28   ar
    35    28    29    1
    36    19    20   ar
    37    20    21   ar
    38     6     1    1
    39    40    35   ar
    40    21    17   ar
    41    12     7    1
    42    28    22   ar
    43    15    16    1
    44    32    33    1
@<TRIPOS>MOLECULE
*****
 40 44 0 0 0
SMALL
GASTEIGER

@<TRIPOS>ATOM
      1 C         141.7692  138.0963  159.1346 C.3     1  UNL1        0.0832
      2 C         142.6821  137.5520  158.0762 C.3     1  UNL1        0.0374
      3 C         142.1393  137.2127  156.7197 C.3     1  UNL1        0.0738
      4 N         140.6836  137.4177  156.4216 N.3     1  UNL1       -0.2734
      5 C         139.7707  137.9621  157.4800 C.3     1  UNL1        0.0828
      6 C         140.3135  138.3014  158.8365 C.3     1  UNL1        0.1103
      7 C         140.1408  137.0784  155.0650 C.3     1  UNL1        0.0575
      8 C         140.9759  136.2924  154.0981 C.3     1  UNL1        0.0160
      9 C         140.4331  135.9531  152.7415 C.3     1  UNL1        0.0014
     10 C         139.0552  136.3997  152.3519 C.3     1  UNL1        0.0001
     11 C         138.2200  137.1858  153.3188 C.3     1  UNL1        0.0014
     12 C         138.7629  137.5251  154.6753 C.3     1  UNL1        0.0160
     13 O         142.7213  140.8813  159.7156 O.2     1  UNL1       -0.2684
     14 C         142.7881  139.8282  160.7817 C.2     1  UNL1        0.2669
     15 N         142.3120  138.4357  160.4912 N.am    1  UNL1       -0.3006
     16 H         142.3558  137.7445  161.1909 H       1  UNL1        0.1497
     17 C         143.3308  140.1675  162.1382 C.ar    1  UNL1        0.1761
     18 C         142.5719  140.1116  163.4308 C.ar    1  UNL1        0.0673
     19 C         143.4998  140.5320  164.5318 C.ar    1  UNL1        0.1792
     20 O         144.8324  140.8476  163.9196 O.2     1  UNL1       -0.3532
     21 N         144.7279  140.6224  162.4403 N.ar    1  UNL1       -0.0723
     22 C         143.1557  140.6210  165.9891 C.ar    1  UNL1        0.0648
     23 C         142.9754  141.9620  166.6366 C.ar    1  UNL1        0.0077
     24 C         142.6313  142.0510  168.0938 C.ar    1  UNL1        0.0299
     25 C         142.4676  140.7990  168.9036 C.ar    1  UNL1        0.1424
     26 F         142.1235  140.8881  170.3609 F       1  UNL1       -0.2041
     27 C         142.6479  139.4581  168.2562 C.ar    1  UNL1        0.0593
     28 C         142.9920  139.3691  166.7989 C.ar    1  UNL1        0.1453
     29 F         143.1724  138.0281  166.1514 F       1  UNL1       -0.2040
     30 C         139.4006  138.8457  159.8950 C.2     1  UNL1        0.2252
     31 O         139.1218  140.3181  159.9602 O.2     1  UNL1       -0.2750
     32 N         138.7665  137.9177  160.8883 N.am    1  UNL1       -0.3004
     33 H         138.9495  136.9513  160.8455 H       1  UNL1        0.1497
     34 C         137.8537  138.4620  161.9467 C.3     1  UNL1        0.1163
     35 C         138.4138  138.8996  163.2676 C.ar    1  UNL1       -0.0026
     36 C         139.2626  137.9593  164.0709 C.ar    1  UNL1       -0.0026
     37 C         139.8227  138.3969  165.3918 C.ar    1  UNL1       -0.0003
     38 C         139.5340  139.7748  165.9094 C.ar    1  UNL1       -0.0000
     39 C         138.6852  140.7152  165.1061 C.ar    1  UNL1       -0.0003
     40 C         138.1251  140.2776  163.7852 C.ar    1  UNL1       -0.0026
@<TRIPOS>BOND
     1    13    14    2
     2    14    15   am
     3     1    15    1
     4     1     2    1
     5     2     3    1
     6     3     4    1
     7     4     7    1
     8     7     8    1
     9     8     9    1
    10     9    10    1
    11    10    11    1
    12    11    12    1
    13     4     5    1
    14     5     6    1
    15     6    30    1
    16    30    31    2
    17    30    32   am
    18    32    34    1
    19    34    35    1
    20    35    36   ar
    21    36    37   ar
    22    37    38   ar
    23    38    39   ar
    24    39    40   ar
    25    14    17    1
    26    17    18   ar
    27    18    19   ar
    28    19    22    1
    29    22    23   ar
    30    23    24   ar
    31    24    25   ar
    32    25    26    1
    33    25    27   ar
    34    27    28   ar
    35    28    29    1
    36    19    20   ar
    37    20    21   ar
    38     6     1    1
    39    40    35   ar
    40    21    17   ar
    41    12     7    1
    42    28    22   ar
    43    15    16    1
    44    32    33    1
@<TRIPOS>MOLECULE
*****
 40 44 0 0 0
SMALL
GASTEIGER

@<TRIPOS>ATOM
      1 C         140.7182  139.0267  159.9583 C.3     1  UNL1        0.0832
      2 C         139.6665  138.7399  158.9279 C.3     1  UNL1        0.0374
      3 C         140.0179  137.9636  157.6935 C.3     1  UNL1        0.0738
      4 N         141.4210  137.4740  157.4895 N.3     1  UNL1       -0.2734
      5 C         142.4727  137.7608  158.5199 C.3     1  UNL1        0.0828
      6 C         142.1213  138.5371  159.7543 C.3     1  UNL1        0.1103
      7 C         141.7724  136.6977  156.2550 C.3     1  UNL1        0.0575
      8 C         141.2637  137.1458  154.9170 C.3     1  UNL1        0.0160
      9 C         141.6151  136.3695  153.6825 C.3     1  UNL1        0.0014
     10 C         142.4753  135.1450  153.7861 C.3     1  UNL1        0.0001
     11 C         142.9840  134.6968  155.1243 C.3     1  UNL1        0.0014
     12 C         142.6326  135.4732  156.3586 C.3     1  UNL1        0.0160
     13 O         139.4917  137.6276  162.3116 O.2     1  UNL1       -0.2684
     14 C         139.7535  139.1035  162.3694 C.2     1  UNL1        0.2669
     15 N         140.3668  139.8030  161.1928 N.am    1  UNL1       -0.3006
     16 H         140.5386  140.7717  161.2307 H       1  UNL1        0.1497
     17 C         139.4021  139.8798  163.6039 C.ar    1  UNL1        0.1761
     18 C         140.1503  139.8551  164.9037 C.ar    1  UNL1        0.0673
     19 C         139.4514  140.7771  165.8584 C.ar    1  UNL1        0.1792
     20 O         138.2712  141.3716  165.1486 O.2     1  UNL1       -0.3532
     21 N         138.2408  140.8170  163.7552 N.ar    1  UNL1       -0.0723
     22 C         139.8607  141.0557  167.2743 C.ar    1  UNL1        0.0648
     23 C         139.7703  139.9726  168.3082 C.ar    1  UNL1        0.0077
     24 C         140.1796  140.2511  169.7241 C.ar    1  UNL1        0.0299
     25 C         140.6794  141.6128  170.1061 C.ar    1  UNL1        0.1424
     26 F         141.0888  141.8914  171.5220 F       1  UNL1       -0.2041
     27 C         140.7699  142.6958  169.0724 C.ar    1  UNL1        0.0593
     28 C         140.3605  142.4173  167.6565 C.ar    1  UNL1        0.1453
     29 F         140.4510  143.5004  166.6227 F       1  UNL1       -0.2040
     30 C         143.1730  138.8239  160.7847 C.2     1  UNL1        0.2252
     31 O         143.7798  137.6992  161.5701 O.2     1  UNL1       -0.2750
     32 N         143.6177  140.2353  161.0297 N.am    1  UNL1       -0.3004
     33 H         143.2194  140.9734  160.5142 H       1  UNL1        0.1497
     34 C         144.6694  140.5221  162.0601 C.3     1  UNL1        0.1163
     35 C         144.3111  141.2720  163.3089 C.ar    1  UNL1       -0.0026
     36 C         143.7447  140.5380  164.4880 C.ar    1  UNL1       -0.0026
     37 C         143.3864  141.2878  165.7367 C.ar    1  UNL1       -0.0003
     38 C         143.5946  142.7716  165.8064 C.ar    1  UNL1       -0.0000
     39 C         144.1610  143.5057  164.6272 C.ar    1  UNL1       -0.0003
     40 C         144.5193  142.7559  163.3784 C.ar    1  UNL1       -0.0026
@<TRIPOS>BOND
     1    13    14    2
     2    14    15   am
     3     1    15    1
     4     1     2    1
     5     2     3    1
     6     3     4    1
     7     4     7    1
     8     7     8    1
     9     8     9    1
    10     9    10    1
    11    10    11    1
    12    11    12    1
    13     4     5    1
    14     5     6    1
    15     6    30    1
    16    30    31    2
    17    30    32   am
    18    32    34    1
    19    34    35    1
    20    35    36   ar
    21    36    37   ar
    22    37    38   ar
    23    38    39   ar
    24    39    40   ar
    25    14    17    1
    26    17    18   ar
    27    18    19   ar
    28    19    22    1
    29    22    23   ar
    30    23    24   ar
    31    24    25   ar
    32    25    26    1
    33    25    27   ar
    34    27    28   ar
    35    28    29    1
    36    19    20   ar
    37    20    21   ar
    38     6     1    1
    39    40    35   ar
    40    21    17   ar
    41    12     7    1
    42    28    22   ar
    43    15    16    1
    44    32    33    1
